#       Name:                GA Fitting Points
#       Creating user name   hitesit
#       Creation time:       Sun Apr 16 22:50:15 2023


#       Fitting Points Used by GA Software.
#

@<TRIPOS>MOLECULE
GA Fitting Points
 14097    0    0
SMALL
NO_CHARGES


@<TRIPOS>ATOM
      1 ****         3.0000   3.2500  -4.0000 Du        
      2 ****         3.0000   3.5000  -4.2500 Du        
      3 ****         3.0000   3.5000  -4.0000 Du        
      4 ****         3.0000   3.5000  -3.7500 Du        
      5 ****         3.0000   3.7500  -4.2500 Du        
      6 ****         3.0000   3.7500  -4.0000 Du        
      7 ****         3.0000   3.7500  -3.7500 Du        
      8 ****         3.0000   3.7500  -3.5000 Du        
      9 ****         3.0000   4.0000  -4.2500 Du        
     10 ****         3.0000   4.0000  -4.0000 Du        
     11 ****         3.0000   4.0000  -3.7500 Du        
     12 ****         3.0000   4.0000  -3.5000 Du        
     13 ****         3.0000   4.2500  -4.5000 Du        
     14 ****         3.0000   4.2500  -4.2500 Du        
     15 ****         3.0000   4.2500  -4.0000 Du        
     16 ****         3.0000   4.2500  -3.7500 Du        
     17 ****         3.0000   4.2500  -3.5000 Du        
     18 ****         3.0000   4.5000  -4.5000 Du        
     19 ****         3.0000   4.5000  -4.2500 Du        
     20 ****         3.0000   4.5000  -4.0000 Du        
     21 ****         3.0000   4.5000  -3.7500 Du        
     22 ****         3.0000   4.7500  -4.5000 Du        
     23 ****         3.0000   4.7500  -4.2500 Du        
     24 ****         3.0000   4.7500  -4.0000 Du        
     25 ****         3.0000   5.0000  -4.5000 Du        
     26 ****         3.0000   5.0000  -4.2500 Du        
     27 ****         3.0000   5.0000  -4.0000 Du        
     28 ****         3.0000   5.2500  -4.5000 Du        
     29 ****         3.0000   5.5000  -4.5000 Du        
     30 ****         3.0000   5.7500  -5.0000 Du        
     31 ****         3.0000   5.7500  -4.7500 Du        
     32 ****         3.0000   5.7500  -4.5000 Du        
     33 ****         3.0000   6.0000  -5.0000 Du        
     34 ****         3.0000   6.0000  -4.7500 Du        
     35 ****         3.0000   6.2500  -5.0000 Du        
     36 ****         3.0000   8.0000  -5.5000 Du        
     37 ****         3.0000   8.2500   3.5000 Du        
     38 ****         3.0000   8.2500   3.7500 Du        
     39 ****         3.0000   8.5000   3.2500 Du        
     40 ****         3.0000   8.5000   3.5000 Du        
     41 ****         3.0000   8.5000   3.7500 Du        
     42 ****         3.0000   8.7500   3.2500 Du        
     43 ****         3.0000   8.7500   3.5000 Du        
     44 ****         3.0000   8.7500   3.7500 Du        
     45 ****         3.0000   9.0000   3.0000 Du        
     46 ****         3.0000   9.0000   3.2500 Du        
     47 ****         3.0000   9.0000   3.5000 Du        
     48 ****         3.0000   9.2500   3.0000 Du        
     49 ****         3.0000   9.2500   3.2500 Du        
     50 ****         3.0000   9.2500   3.5000 Du        
     51 ****         3.0000   9.5000   3.0000 Du        
     52 ****         3.0000   9.5000   3.2500 Du        
     53 ****         3.0000   9.7500   2.7500 Du        
     54 ****         3.0000   9.7500   3.0000 Du        
     55 ****         3.0000   9.7500   3.2500 Du        
     56 ****         3.0000  10.0000  -4.5000 Du        
     57 ****         3.0000  10.0000   2.5000 Du        
     58 ****         3.0000  10.0000   2.7500 Du        
     59 ****         3.0000  10.0000   3.0000 Du        
     60 ****         3.0000  10.0000   3.2500 Du        
     61 ****         3.0000  10.2500  -4.7500 Du        
     62 ****         3.0000  10.2500  -4.5000 Du        
     63 ****         3.0000  10.2500  -4.2500 Du        
     64 ****         3.0000  10.2500   2.5000 Du        
     65 ****         3.0000  10.2500   2.7500 Du        
     66 ****         3.0000  10.2500   3.0000 Du        
     67 ****         3.0000  10.2500   3.2500 Du        
     68 ****         3.0000  10.5000  -4.7500 Du        
     69 ****         3.0000  10.5000  -4.5000 Du        
     70 ****         3.0000  10.5000  -4.2500 Du        
     71 ****         3.0000  10.5000  -4.0000 Du        
     72 ****         3.0000  10.5000  -3.7500 Du        
     73 ****         3.0000  10.5000   2.2500 Du        
     74 ****         3.0000  10.5000   2.5000 Du        
     75 ****         3.0000  10.5000   2.7500 Du        
     76 ****         3.0000  10.5000   3.0000 Du        
     77 ****         3.0000  10.7500  -4.5000 Du        
     78 ****         3.0000  10.7500  -4.2500 Du        
     79 ****         3.0000  10.7500  -4.0000 Du        
     80 ****         3.0000  10.7500  -3.7500 Du        
     81 ****         3.0000  10.7500  -3.5000 Du        
     82 ****         3.0000  10.7500   2.0000 Du        
     83 ****         3.0000  10.7500   2.2500 Du        
     84 ****         3.0000  10.7500   2.5000 Du        
     85 ****         3.0000  10.7500   2.7500 Du        
     86 ****         3.0000  11.0000  -4.5000 Du        
     87 ****         3.0000  11.0000  -4.2500 Du        
     88 ****         3.0000  11.0000  -4.0000 Du        
     89 ****         3.0000  11.0000  -3.7500 Du        
     90 ****         3.0000  11.0000  -3.5000 Du        
     91 ****         3.0000  11.0000  -3.2500 Du        
     92 ****         3.0000  11.0000  -3.0000 Du        
     93 ****         3.0000  11.0000   2.0000 Du        
     94 ****         3.0000  11.0000   2.2500 Du        
     95 ****         3.0000  11.2500  -4.0000 Du        
     96 ****         3.0000  11.2500  -3.7500 Du        
     97 ****         3.0000  11.2500  -3.5000 Du        
     98 ****         3.0000  11.2500  -3.2500 Du        
     99 ****         3.0000  11.2500  -3.0000 Du        
    100 ****         3.0000  11.2500   1.7500 Du        
    101 ****         3.0000  11.2500   2.0000 Du        
    102 ****         3.0000  11.2500   2.2500 Du        
    103 ****         3.0000  11.5000  -4.0000 Du        
    104 ****         3.0000  11.5000  -3.7500 Du        
    105 ****         3.0000  11.5000  -3.5000 Du        
    106 ****         3.0000  11.5000  -3.2500 Du        
    107 ****         3.0000  11.5000  -3.0000 Du        
    108 ****         3.0000  11.5000   1.7500 Du        
    109 ****         3.0000  11.5000   2.0000 Du        
    110 ****         3.0000  11.5000   2.2500 Du        
    111 ****         3.0000  11.7500   1.0000 Du        
    112 ****         3.0000  11.7500   1.2500 Du        
    113 ****         3.0000  11.7500   1.5000 Du        
    114 ****         3.0000  11.7500   1.7500 Du        
    115 ****         3.0000  11.7500   2.0000 Du        
    116 ****         3.0000  12.0000   0.7500 Du        
    117 ****         3.0000  12.0000   1.0000 Du        
    118 ****         3.0000  12.0000   1.2500 Du        
    119 ****         3.0000  12.0000   1.5000 Du        
    120 ****         3.0000  12.0000   1.7500 Du        
    121 ****         3.0000  12.0000   2.0000 Du        
    122 ****         3.2500   3.5000  -4.2500 Du        
    123 ****         3.2500   3.5000  -4.0000 Du        
    124 ****         3.2500   3.7500  -4.5000 Du        
    125 ****         3.2500   3.7500  -4.2500 Du        
    126 ****         3.2500   3.7500  -4.0000 Du        
    127 ****         3.2500   3.7500  -3.7500 Du        
    128 ****         3.2500   4.0000  -4.5000 Du        
    129 ****         3.2500   4.0000  -4.2500 Du        
    130 ****         3.2500   4.0000  -4.0000 Du        
    131 ****         3.2500   4.0000  -3.7500 Du        
    132 ****         3.2500   4.2500  -4.5000 Du        
    133 ****         3.2500   4.2500  -4.2500 Du        
    134 ****         3.2500   4.2500  -4.0000 Du        
    135 ****         3.2500   4.2500  -3.7500 Du        
    136 ****         3.2500   4.5000  -4.5000 Du        
    137 ****         3.2500   4.5000  -4.2500 Du        
    138 ****         3.2500   4.5000  -4.0000 Du        
    139 ****         3.2500   4.7500  -4.7500 Du        
    140 ****         3.2500   4.7500  -4.5000 Du        
    141 ****         3.2500   4.7500  -4.2500 Du        
    142 ****         3.2500   4.7500  -4.0000 Du        
    143 ****         3.2500   5.0000  -4.7500 Du        
    144 ****         3.2500   5.0000  -4.5000 Du        
    145 ****         3.2500   5.0000  -4.2500 Du        
    146 ****         3.2500   5.0000  -4.0000 Du        
    147 ****         3.2500   5.2500  -4.7500 Du        
    148 ****         3.2500   5.2500  -4.5000 Du        
    149 ****         3.2500   5.2500  -4.2500 Du        
    150 ****         3.2500   5.5000  -5.2500 Du        
    151 ****         3.2500   5.5000  -5.0000 Du        
    152 ****         3.2500   5.5000  -4.7500 Du        
    153 ****         3.2500   5.5000  -4.5000 Du        
    154 ****         3.2500   5.5000  -4.2500 Du        
    155 ****         3.2500   5.7500  -5.2500 Du        
    156 ****         3.2500   5.7500  -5.0000 Du        
    157 ****         3.2500   5.7500  -4.7500 Du        
    158 ****         3.2500   5.7500  -4.5000 Du        
    159 ****         3.2500   6.0000  -5.2500 Du        
    160 ****         3.2500   6.0000  -5.0000 Du        
    161 ****         3.2500   6.0000  -4.7500 Du        
    162 ****         3.2500   6.0000  -4.5000 Du        
    163 ****         3.2500   6.2500  -5.2500 Du        
    164 ****         3.2500   6.2500  -5.0000 Du        
    165 ****         3.2500   6.2500  -4.7500 Du        
    166 ****         3.2500   6.5000  -5.5000 Du        
    167 ****         3.2500   6.5000  -5.2500 Du        
    168 ****         3.2500   6.5000  -5.0000 Du        
    169 ****         3.2500   6.7500  -5.5000 Du        
    170 ****         3.2500   6.7500  -5.2500 Du        
    171 ****         3.2500   6.7500  -5.0000 Du        
    172 ****         3.2500   7.0000  -5.5000 Du        
    173 ****         3.2500   7.0000  -5.2500 Du        
    174 ****         3.2500   7.0000  -5.0000 Du        
    175 ****         3.2500   7.2500  -5.5000 Du        
    176 ****         3.2500   7.2500  -5.2500 Du        
    177 ****         3.2500   7.2500  -5.0000 Du        
    178 ****         3.2500   7.5000  -5.7500 Du        
    179 ****         3.2500   7.5000  -5.5000 Du        
    180 ****         3.2500   7.5000  -5.2500 Du        
    181 ****         3.2500   7.7500  -5.7500 Du        
    182 ****         3.2500   7.7500  -5.5000 Du        
    183 ****         3.2500   7.7500  -5.2500 Du        
    184 ****         3.2500   8.0000  -5.7500 Du        
    185 ****         3.2500   8.0000  -5.5000 Du        
    186 ****         3.2500   8.0000  -5.2500 Du        
    187 ****         3.2500   8.2500  -5.7500 Du        
    188 ****         3.2500   8.2500  -5.5000 Du        
    189 ****         3.2500   8.2500  -5.2500 Du        
    190 ****         3.2500   8.5000  -5.5000 Du        
    191 ****         3.2500   8.7500   3.2500 Du        
    192 ****         3.2500   9.0000   3.0000 Du        
    193 ****         3.2500   9.0000   3.2500 Du        
    194 ****         3.2500   9.2500   3.0000 Du        
    195 ****         3.2500   9.2500   3.2500 Du        
    196 ****         3.2500   9.5000   3.0000 Du        
    197 ****         3.2500   9.7500   2.7500 Du        
    198 ****         3.2500   9.7500   3.0000 Du        
    199 ****         3.2500  10.0000   2.5000 Du        
    200 ****         3.2500  10.0000   2.7500 Du        
    201 ****         3.2500  10.0000   3.0000 Du        
    202 ****         3.2500  10.0000   3.2500 Du        
    203 ****         3.2500  10.2500   2.5000 Du        
    204 ****         3.2500  10.2500   2.7500 Du        
    205 ****         3.2500  10.2500   3.0000 Du        
    206 ****         3.2500  10.5000  -4.5000 Du        
    207 ****         3.2500  10.5000  -4.2500 Du        
    208 ****         3.2500  10.5000  -4.0000 Du        
    209 ****         3.2500  10.5000   2.2500 Du        
    210 ****         3.2500  10.5000   2.5000 Du        
    211 ****         3.2500  10.5000   2.7500 Du        
    212 ****         3.2500  10.5000   3.0000 Du        
    213 ****         3.2500  10.7500  -4.5000 Du        
    214 ****         3.2500  10.7500  -4.2500 Du        
    215 ****         3.2500  10.7500  -4.0000 Du        
    216 ****         3.2500  10.7500  -3.7500 Du        
    217 ****         3.2500  10.7500  -3.5000 Du        
    218 ****         3.2500  10.7500   2.0000 Du        
    219 ****         3.2500  10.7500   2.2500 Du        
    220 ****         3.2500  10.7500   2.5000 Du        
    221 ****         3.2500  10.7500   2.7500 Du        
    222 ****         3.2500  11.0000  -4.5000 Du        
    223 ****         3.2500  11.0000  -4.2500 Du        
    224 ****         3.2500  11.0000  -4.0000 Du        
    225 ****         3.2500  11.0000  -3.7500 Du        
    226 ****         3.2500  11.0000  -3.5000 Du        
    227 ****         3.2500  11.0000  -3.2500 Du        
    228 ****         3.2500  11.0000   1.7500 Du        
    229 ****         3.2500  11.0000   2.0000 Du        
    230 ****         3.2500  11.0000   2.2500 Du        
    231 ****         3.2500  11.0000   2.5000 Du        
    232 ****         3.2500  11.0000   2.7500 Du        
    233 ****         3.2500  11.2500  -4.0000 Du        
    234 ****         3.2500  11.2500  -3.7500 Du        
    235 ****         3.2500  11.2500  -3.5000 Du        
    236 ****         3.2500  11.2500  -3.2500 Du        
    237 ****         3.2500  11.2500   1.5000 Du        
    238 ****         3.2500  11.2500   1.7500 Du        
    239 ****         3.2500  11.2500   2.0000 Du        
    240 ****         3.2500  11.2500   2.2500 Du        
    241 ****         3.2500  11.5000  -4.0000 Du        
    242 ****         3.2500  11.5000  -3.7500 Du        
    243 ****         3.2500  11.5000  -3.5000 Du        
    244 ****         3.2500  11.5000  -3.2500 Du        
    245 ****         3.2500  11.5000   1.2500 Du        
    246 ****         3.2500  11.5000   1.5000 Du        
    247 ****         3.2500  11.5000   1.7500 Du        
    248 ****         3.2500  11.5000   2.0000 Du        
    249 ****         3.2500  11.5000   2.2500 Du        
    250 ****         3.2500  11.7500   1.0000 Du        
    251 ****         3.2500  11.7500   1.2500 Du        
    252 ****         3.2500  11.7500   1.5000 Du        
    253 ****         3.2500  11.7500   1.7500 Du        
    254 ****         3.2500  11.7500   2.0000 Du        
    255 ****         3.2500  11.7500   2.2500 Du        
    256 ****         3.2500  12.0000   0.7500 Du        
    257 ****         3.2500  12.0000   1.0000 Du        
    258 ****         3.2500  12.0000   1.2500 Du        
    259 ****         3.2500  12.0000   1.5000 Du        
    260 ****         3.2500  12.0000   1.7500 Du        
    261 ****         3.2500  12.0000   2.0000 Du        
    262 ****         3.2500  12.0000   2.2500 Du        
    263 ****         3.5000   3.7500  -4.5000 Du        
    264 ****         3.5000   3.7500  -4.2500 Du        
    265 ****         3.5000   4.0000  -4.7500 Du        
    266 ****         3.5000   4.0000  -4.5000 Du        
    267 ****         3.5000   4.0000  -4.2500 Du        
    268 ****         3.5000   4.2500  -5.0000 Du        
    269 ****         3.5000   4.2500  -4.7500 Du        
    270 ****         3.5000   4.2500  -4.5000 Du        
    271 ****         3.5000   4.2500  -4.2500 Du        
    272 ****         3.5000   4.2500  -4.0000 Du        
    273 ****         3.5000   4.5000  -5.2500 Du        
    274 ****         3.5000   4.5000  -5.0000 Du        
    275 ****         3.5000   4.5000  -4.7500 Du        
    276 ****         3.5000   4.5000  -4.5000 Du        
    277 ****         3.5000   4.5000  -4.2500 Du        
    278 ****         3.5000   4.5000  -4.0000 Du        
    279 ****         3.5000   4.7500  -5.2500 Du        
    280 ****         3.5000   4.7500  -5.0000 Du        
    281 ****         3.5000   4.7500  -4.7500 Du        
    282 ****         3.5000   4.7500  -4.5000 Du        
    283 ****         3.5000   4.7500  -4.2500 Du        
    284 ****         3.5000   4.7500  -4.0000 Du        
    285 ****         3.5000   5.0000  -5.5000 Du        
    286 ****         3.5000   5.0000  -5.2500 Du        
    287 ****         3.5000   5.0000  -5.0000 Du        
    288 ****         3.5000   5.0000  -4.7500 Du        
    289 ****         3.5000   5.0000  -4.5000 Du        
    290 ****         3.5000   5.0000  -4.2500 Du        
    291 ****         3.5000   5.0000  -4.0000 Du        
    292 ****         3.5000   5.2500  -5.5000 Du        
    293 ****         3.5000   5.2500  -5.2500 Du        
    294 ****         3.5000   5.2500  -5.0000 Du        
    295 ****         3.5000   5.2500  -4.7500 Du        
    296 ****         3.5000   5.2500  -4.5000 Du        
    297 ****         3.5000   5.2500  -4.2500 Du        
    298 ****         3.5000   5.5000  -5.5000 Du        
    299 ****         3.5000   5.5000  -5.2500 Du        
    300 ****         3.5000   5.5000  -5.0000 Du        
    301 ****         3.5000   5.5000  -4.7500 Du        
    302 ****         3.5000   5.5000  -4.5000 Du        
    303 ****         3.5000   5.5000  -4.2500 Du        
    304 ****         3.5000   5.7500  -5.5000 Du        
    305 ****         3.5000   5.7500  -5.2500 Du        
    306 ****         3.5000   5.7500  -5.0000 Du        
    307 ****         3.5000   5.7500  -4.7500 Du        
    308 ****         3.5000   5.7500  -4.5000 Du        
    309 ****         3.5000   6.0000  -5.7500 Du        
    310 ****         3.5000   6.0000  -5.5000 Du        
    311 ****         3.5000   6.0000  -5.2500 Du        
    312 ****         3.5000   6.0000  -5.0000 Du        
    313 ****         3.5000   6.0000  -4.7500 Du        
    314 ****         3.5000   6.0000  -4.5000 Du        
    315 ****         3.5000   6.2500  -5.7500 Du        
    316 ****         3.5000   6.2500  -5.5000 Du        
    317 ****         3.5000   6.2500  -5.2500 Du        
    318 ****         3.5000   6.2500  -5.0000 Du        
    319 ****         3.5000   6.2500  -4.7500 Du        
    320 ****         3.5000   6.2500  -4.5000 Du        
    321 ****         3.5000   6.5000  -6.0000 Du        
    322 ****         3.5000   6.5000  -5.7500 Du        
    323 ****         3.5000   6.5000  -5.5000 Du        
    324 ****         3.5000   6.5000  -5.2500 Du        
    325 ****         3.5000   6.5000  -5.0000 Du        
    326 ****         3.5000   6.5000  -4.7500 Du        
    327 ****         3.5000   6.5000  -4.5000 Du        
    328 ****         3.5000   6.7500  -6.0000 Du        
    329 ****         3.5000   6.7500  -5.7500 Du        
    330 ****         3.5000   6.7500  -5.5000 Du        
    331 ****         3.5000   6.7500  -5.2500 Du        
    332 ****         3.5000   6.7500  -5.0000 Du        
    333 ****         3.5000   6.7500  -4.7500 Du        
    334 ****         3.5000   7.0000  -6.0000 Du        
    335 ****         3.5000   7.0000  -5.7500 Du        
    336 ****         3.5000   7.0000  -5.5000 Du        
    337 ****         3.5000   7.0000  -5.2500 Du        
    338 ****         3.5000   7.0000  -5.0000 Du        
    339 ****         3.5000   7.0000  -4.7500 Du        
    340 ****         3.5000   7.2500  -6.2500 Du        
    341 ****         3.5000   7.2500  -6.0000 Du        
    342 ****         3.5000   7.2500  -5.7500 Du        
    343 ****         3.5000   7.2500  -5.5000 Du        
    344 ****         3.5000   7.2500  -5.2500 Du        
    345 ****         3.5000   7.2500  -5.0000 Du        
    346 ****         3.5000   7.5000  -6.2500 Du        
    347 ****         3.5000   7.5000  -6.0000 Du        
    348 ****         3.5000   7.5000  -5.7500 Du        
    349 ****         3.5000   7.5000  -5.5000 Du        
    350 ****         3.5000   7.5000  -5.2500 Du        
    351 ****         3.5000   7.5000  -5.0000 Du        
    352 ****         3.5000   7.7500  -6.0000 Du        
    353 ****         3.5000   7.7500  -5.7500 Du        
    354 ****         3.5000   7.7500  -5.5000 Du        
    355 ****         3.5000   7.7500  -5.2500 Du        
    356 ****         3.5000   7.7500  -5.0000 Du        
    357 ****         3.5000   8.0000  -6.0000 Du        
    358 ****         3.5000   8.0000  -5.7500 Du        
    359 ****         3.5000   8.0000  -5.5000 Du        
    360 ****         3.5000   8.0000  -5.2500 Du        
    361 ****         3.5000   8.2500  -6.0000 Du        
    362 ****         3.5000   8.2500  -5.7500 Du        
    363 ****         3.5000   8.2500  -5.5000 Du        
    364 ****         3.5000   8.2500  -5.2500 Du        
    365 ****         3.5000   8.5000  -5.5000 Du        
    366 ****         3.5000   8.5000  -5.2500 Du        
    367 ****         3.5000   8.7500  -5.5000 Du        
    368 ****         3.5000   8.7500  -5.2500 Du        
    369 ****         3.5000   9.7500   2.7500 Du        
    370 ****         3.5000  10.0000   2.5000 Du        
    371 ****         3.5000  10.0000   2.7500 Du        
    372 ****         3.5000  10.2500   2.2500 Du        
    373 ****         3.5000  10.2500   2.5000 Du        
    374 ****         3.5000  10.2500   2.7500 Du        
    375 ****         3.5000  10.5000   2.2500 Du        
    376 ****         3.5000  10.5000   2.5000 Du        
    377 ****         3.5000  10.5000   2.7500 Du        
    378 ****         3.5000  10.7500  -4.0000 Du        
    379 ****         3.5000  10.7500  -3.7500 Du        
    380 ****         3.5000  10.7500   2.0000 Du        
    381 ****         3.5000  10.7500   2.2500 Du        
    382 ****         3.5000  10.7500   2.5000 Du        
    383 ****         3.5000  10.7500   2.7500 Du        
    384 ****         3.5000  11.0000  -4.2500 Du        
    385 ****         3.5000  11.0000  -4.0000 Du        
    386 ****         3.5000  11.0000  -3.7500 Du        
    387 ****         3.5000  11.0000  -3.5000 Du        
    388 ****         3.5000  11.0000   1.7500 Du        
    389 ****         3.5000  11.0000   2.0000 Du        
    390 ****         3.5000  11.0000   2.2500 Du        
    391 ****         3.5000  11.0000   2.5000 Du        
    392 ****         3.5000  11.0000   2.7500 Du        
    393 ****         3.5000  11.0000   3.0000 Du        
    394 ****         3.5000  11.2500  -4.2500 Du        
    395 ****         3.5000  11.2500  -4.0000 Du        
    396 ****         3.5000  11.2500  -3.7500 Du        
    397 ****         3.5000  11.2500  -3.5000 Du        
    398 ****         3.5000  11.2500   1.5000 Du        
    399 ****         3.5000  11.2500   1.7500 Du        
    400 ****         3.5000  11.2500   2.0000 Du        
    401 ****         3.5000  11.2500   2.2500 Du        
    402 ****         3.5000  11.2500   2.5000 Du        
    403 ****         3.5000  11.2500   2.7500 Du        
    404 ****         3.5000  11.5000  -4.5000 Du        
    405 ****         3.5000  11.5000  -4.2500 Du        
    406 ****         3.5000  11.5000  -4.0000 Du        
    407 ****         3.5000  11.5000  -3.7500 Du        
    408 ****         3.5000  11.5000  -3.5000 Du        
    409 ****         3.5000  11.5000   1.2500 Du        
    410 ****         3.5000  11.5000   1.5000 Du        
    411 ****         3.5000  11.5000   1.7500 Du        
    412 ****         3.5000  11.5000   2.0000 Du        
    413 ****         3.5000  11.5000   2.2500 Du        
    414 ****         3.5000  11.5000   2.5000 Du        
    415 ****         3.5000  11.5000   2.7500 Du        
    416 ****         3.5000  11.7500   1.0000 Du        
    417 ****         3.5000  11.7500   1.2500 Du        
    418 ****         3.5000  11.7500   1.5000 Du        
    419 ****         3.5000  11.7500   1.7500 Du        
    420 ****         3.5000  11.7500   2.0000 Du        
    421 ****         3.5000  11.7500   2.2500 Du        
    422 ****         3.5000  11.7500   2.5000 Du        
    423 ****         3.5000  11.7500   2.7500 Du        
    424 ****         3.5000  12.0000   0.7500 Du        
    425 ****         3.5000  12.0000   1.0000 Du        
    426 ****         3.5000  12.0000   1.2500 Du        
    427 ****         3.5000  12.0000   1.5000 Du        
    428 ****         3.5000  12.0000   1.7500 Du        
    429 ****         3.5000  12.0000   2.0000 Du        
    430 ****         3.5000  12.0000   2.2500 Du        
    431 ****         3.5000  12.0000   2.5000 Du        
    432 ****         3.5000  12.0000   2.7500 Du        
    433 ****         3.7500   4.0000  -5.0000 Du        
    434 ****         3.7500   4.2500  -5.2500 Du        
    435 ****         3.7500   4.2500  -5.0000 Du        
    436 ****         3.7500   4.2500  -4.7500 Du        
    437 ****         3.7500   4.5000  -5.5000 Du        
    438 ****         3.7500   4.5000  -5.2500 Du        
    439 ****         3.7500   4.5000  -5.0000 Du        
    440 ****         3.7500   4.5000  -4.7500 Du        
    441 ****         3.7500   4.7500  -5.5000 Du        
    442 ****         3.7500   4.7500  -5.2500 Du        
    443 ****         3.7500   4.7500  -5.0000 Du        
    444 ****         3.7500   4.7500  -4.7500 Du        
    445 ****         3.7500   4.7500  -4.5000 Du        
    446 ****         3.7500   5.0000  -5.5000 Du        
    447 ****         3.7500   5.0000  -5.2500 Du        
    448 ****         3.7500   5.0000  -5.0000 Du        
    449 ****         3.7500   5.0000  -4.7500 Du        
    450 ****         3.7500   5.0000  -4.5000 Du        
    451 ****         3.7500   5.2500  -5.5000 Du        
    452 ****         3.7500   5.2500  -5.2500 Du        
    453 ****         3.7500   5.2500  -5.0000 Du        
    454 ****         3.7500   5.2500  -4.7500 Du        
    455 ****         3.7500   5.2500  -4.5000 Du        
    456 ****         3.7500   5.5000  -5.7500 Du        
    457 ****         3.7500   5.5000  -5.5000 Du        
    458 ****         3.7500   5.5000  -5.2500 Du        
    459 ****         3.7500   5.5000  -5.0000 Du        
    460 ****         3.7500   5.5000  -4.7500 Du        
    461 ****         3.7500   5.5000  -4.5000 Du        
    462 ****         3.7500   5.5000  -4.2500 Du        
    463 ****         3.7500   5.7500  -6.2500 Du        
    464 ****         3.7500   5.7500  -6.0000 Du        
    465 ****         3.7500   5.7500  -5.7500 Du        
    466 ****         3.7500   5.7500  -5.5000 Du        
    467 ****         3.7500   5.7500  -5.2500 Du        
    468 ****         3.7500   5.7500  -5.0000 Du        
    469 ****         3.7500   5.7500  -4.7500 Du        
    470 ****         3.7500   5.7500  -4.5000 Du        
    471 ****         3.7500   5.7500  -4.2500 Du        
    472 ****         3.7500   6.0000  -6.2500 Du        
    473 ****         3.7500   6.0000  -6.0000 Du        
    474 ****         3.7500   6.0000  -5.7500 Du        
    475 ****         3.7500   6.0000  -5.5000 Du        
    476 ****         3.7500   6.0000  -5.2500 Du        
    477 ****         3.7500   6.0000  -5.0000 Du        
    478 ****         3.7500   6.0000  -4.7500 Du        
    479 ****         3.7500   6.0000  -4.5000 Du        
    480 ****         3.7500   6.2500  -6.5000 Du        
    481 ****         3.7500   6.2500  -6.2500 Du        
    482 ****         3.7500   6.2500  -6.0000 Du        
    483 ****         3.7500   6.2500  -5.7500 Du        
    484 ****         3.7500   6.2500  -5.5000 Du        
    485 ****         3.7500   6.2500  -5.2500 Du        
    486 ****         3.7500   6.2500  -5.0000 Du        
    487 ****         3.7500   6.2500  -4.7500 Du        
    488 ****         3.7500   6.2500  -4.5000 Du        
    489 ****         3.7500   6.5000  -6.5000 Du        
    490 ****         3.7500   6.5000  -6.2500 Du        
    491 ****         3.7500   6.5000  -6.0000 Du        
    492 ****         3.7500   6.5000  -5.7500 Du        
    493 ****         3.7500   6.5000  -5.5000 Du        
    494 ****         3.7500   6.5000  -5.2500 Du        
    495 ****         3.7500   6.5000  -5.0000 Du        
    496 ****         3.7500   6.5000  -4.7500 Du        
    497 ****         3.7500   6.5000  -4.5000 Du        
    498 ****         3.7500   6.7500  -6.5000 Du        
    499 ****         3.7500   6.7500  -6.2500 Du        
    500 ****         3.7500   6.7500  -6.0000 Du        
    501 ****         3.7500   6.7500  -5.7500 Du        
    502 ****         3.7500   6.7500  -5.5000 Du        
    503 ****         3.7500   6.7500  -5.2500 Du        
    504 ****         3.7500   6.7500  -5.0000 Du        
    505 ****         3.7500   6.7500  -4.7500 Du        
    506 ****         3.7500   6.7500  -4.5000 Du        
    507 ****         3.7500   7.0000  -6.5000 Du        
    508 ****         3.7500   7.0000  -6.2500 Du        
    509 ****         3.7500   7.0000  -6.0000 Du        
    510 ****         3.7500   7.0000  -5.7500 Du        
    511 ****         3.7500   7.0000  -5.5000 Du        
    512 ****         3.7500   7.0000  -5.2500 Du        
    513 ****         3.7500   7.0000  -5.0000 Du        
    514 ****         3.7500   7.0000  -4.7500 Du        
    515 ****         3.7500   7.2500  -6.5000 Du        
    516 ****         3.7500   7.2500  -6.2500 Du        
    517 ****         3.7500   7.2500  -6.0000 Du        
    518 ****         3.7500   7.2500  -5.7500 Du        
    519 ****         3.7500   7.2500  -5.5000 Du        
    520 ****         3.7500   7.2500  -5.2500 Du        
    521 ****         3.7500   7.2500  -5.0000 Du        
    522 ****         3.7500   7.2500  -4.7500 Du        
    523 ****         3.7500   7.5000  -6.2500 Du        
    524 ****         3.7500   7.5000  -6.0000 Du        
    525 ****         3.7500   7.5000  -5.7500 Du        
    526 ****         3.7500   7.5000  -5.5000 Du        
    527 ****         3.7500   7.5000  -5.2500 Du        
    528 ****         3.7500   7.5000  -5.0000 Du        
    529 ****         3.7500   7.7500  -6.0000 Du        
    530 ****         3.7500   7.7500  -5.7500 Du        
    531 ****         3.7500   7.7500  -5.5000 Du        
    532 ****         3.7500   7.7500  -5.2500 Du        
    533 ****         3.7500   7.7500  -5.0000 Du        
    534 ****         3.7500   8.0000  -5.7500 Du        
    535 ****         3.7500   8.0000  -5.5000 Du        
    536 ****         3.7500   8.0000  -5.2500 Du        
    537 ****         3.7500   8.2500  -5.7500 Du        
    538 ****         3.7500   8.2500  -5.5000 Du        
    539 ****         3.7500   8.2500  -5.2500 Du        
    540 ****         3.7500  10.7500   2.0000 Du        
    541 ****         3.7500  10.7500   2.2500 Du        
    542 ****         3.7500  11.0000   1.7500 Du        
    543 ****         3.7500  11.0000   2.0000 Du        
    544 ****         3.7500  11.0000   2.2500 Du        
    545 ****         3.7500  11.2500  -4.0000 Du        
    546 ****         3.7500  11.2500  -3.7500 Du        
    547 ****         3.7500  11.2500   1.5000 Du        
    548 ****         3.7500  11.2500   1.7500 Du        
    549 ****         3.7500  11.2500   2.0000 Du        
    550 ****         3.7500  11.2500   2.2500 Du        
    551 ****         3.7500  11.2500   2.5000 Du        
    552 ****         3.7500  11.5000  -4.0000 Du        
    553 ****         3.7500  11.5000  -3.7500 Du        
    554 ****         3.7500  11.5000   1.2500 Du        
    555 ****         3.7500  11.5000   1.5000 Du        
    556 ****         3.7500  11.5000   1.7500 Du        
    557 ****         3.7500  11.5000   2.0000 Du        
    558 ****         3.7500  11.5000   2.2500 Du        
    559 ****         3.7500  11.5000   2.5000 Du        
    560 ****         3.7500  11.7500   1.0000 Du        
    561 ****         3.7500  11.7500   1.2500 Du        
    562 ****         3.7500  11.7500   1.5000 Du        
    563 ****         3.7500  11.7500   1.7500 Du        
    564 ****         3.7500  11.7500   2.0000 Du        
    565 ****         3.7500  11.7500   2.2500 Du        
    566 ****         3.7500  11.7500   2.5000 Du        
    567 ****         3.7500  12.0000   1.0000 Du        
    568 ****         3.7500  12.0000   1.2500 Du        
    569 ****         3.7500  12.0000   1.5000 Du        
    570 ****         3.7500  12.0000   1.7500 Du        
    571 ****         3.7500  12.0000   2.0000 Du        
    572 ****         3.7500  12.0000   2.2500 Du        
    573 ****         3.7500  12.0000   2.5000 Du        
    574 ****         3.7500  12.0000   2.7500 Du        
    575 ****         3.7500  12.0000   3.0000 Du        
    576 ****         4.0000   4.0000  -5.0000 Du        
    577 ****         4.0000   4.2500  -5.5000 Du        
    578 ****         4.0000   4.2500  -5.2500 Du        
    579 ****         4.0000   4.2500  -5.0000 Du        
    580 ****         4.0000   4.5000  -5.5000 Du        
    581 ****         4.0000   4.5000  -5.2500 Du        
    582 ****         4.0000   4.5000  -5.0000 Du        
    583 ****         4.0000   4.7500  -5.7500 Du        
    584 ****         4.0000   4.7500  -5.5000 Du        
    585 ****         4.0000   4.7500  -5.2500 Du        
    586 ****         4.0000   4.7500  -5.0000 Du        
    587 ****         4.0000   5.0000  -6.0000 Du        
    588 ****         4.0000   5.0000  -5.7500 Du        
    589 ****         4.0000   5.0000  -5.5000 Du        
    590 ****         4.0000   5.0000  -5.2500 Du        
    591 ****         4.0000   5.0000  -5.0000 Du        
    592 ****         4.0000   5.0000  -4.7500 Du        
    593 ****         4.0000   5.2500  -6.0000 Du        
    594 ****         4.0000   5.2500  -5.7500 Du        
    595 ****         4.0000   5.2500  -5.5000 Du        
    596 ****         4.0000   5.2500  -5.2500 Du        
    597 ****         4.0000   5.2500  -5.0000 Du        
    598 ****         4.0000   5.2500  -4.7500 Du        
    599 ****         4.0000   5.5000  -6.7500 Du        
    600 ****         4.0000   5.5000  -6.5000 Du        
    601 ****         4.0000   5.5000  -6.2500 Du        
    602 ****         4.0000   5.5000  -6.0000 Du        
    603 ****         4.0000   5.5000  -5.7500 Du        
    604 ****         4.0000   5.5000  -5.5000 Du        
    605 ****         4.0000   5.5000  -5.2500 Du        
    606 ****         4.0000   5.5000  -5.0000 Du        
    607 ****         4.0000   5.5000  -4.7500 Du        
    608 ****         4.0000   5.5000  -4.5000 Du        
    609 ****         4.0000   5.7500  -7.0000 Du        
    610 ****         4.0000   5.7500  -6.7500 Du        
    611 ****         4.0000   5.7500  -6.5000 Du        
    612 ****         4.0000   5.7500  -6.2500 Du        
    613 ****         4.0000   5.7500  -6.0000 Du        
    614 ****         4.0000   5.7500  -5.7500 Du        
    615 ****         4.0000   5.7500  -5.5000 Du        
    616 ****         4.0000   5.7500  -5.2500 Du        
    617 ****         4.0000   5.7500  -5.0000 Du        
    618 ****         4.0000   5.7500  -4.7500 Du        
    619 ****         4.0000   5.7500  -4.5000 Du        
    620 ****         4.0000   6.0000  -7.0000 Du        
    621 ****         4.0000   6.0000  -6.7500 Du        
    622 ****         4.0000   6.0000  -6.5000 Du        
    623 ****         4.0000   6.0000  -6.2500 Du        
    624 ****         4.0000   6.0000  -6.0000 Du        
    625 ****         4.0000   6.0000  -5.7500 Du        
    626 ****         4.0000   6.0000  -5.5000 Du        
    627 ****         4.0000   6.0000  -5.2500 Du        
    628 ****         4.0000   6.0000  -5.0000 Du        
    629 ****         4.0000   6.0000  -4.7500 Du        
    630 ****         4.0000   6.0000  -4.5000 Du        
    631 ****         4.0000   6.2500  -7.0000 Du        
    632 ****         4.0000   6.2500  -6.7500 Du        
    633 ****         4.0000   6.2500  -6.5000 Du        
    634 ****         4.0000   6.2500  -6.2500 Du        
    635 ****         4.0000   6.2500  -6.0000 Du        
    636 ****         4.0000   6.2500  -5.7500 Du        
    637 ****         4.0000   6.2500  -5.5000 Du        
    638 ****         4.0000   6.2500  -5.2500 Du        
    639 ****         4.0000   6.2500  -5.0000 Du        
    640 ****         4.0000   6.2500  -4.7500 Du        
    641 ****         4.0000   6.2500  -4.5000 Du        
    642 ****         4.0000   6.2500   8.7500 Du        
    643 ****         4.0000   6.5000  -7.0000 Du        
    644 ****         4.0000   6.5000  -6.7500 Du        
    645 ****         4.0000   6.5000  -6.5000 Du        
    646 ****         4.0000   6.5000  -6.2500 Du        
    647 ****         4.0000   6.5000  -6.0000 Du        
    648 ****         4.0000   6.5000  -5.7500 Du        
    649 ****         4.0000   6.5000  -5.5000 Du        
    650 ****         4.0000   6.5000  -5.2500 Du        
    651 ****         4.0000   6.5000  -5.0000 Du        
    652 ****         4.0000   6.5000  -4.7500 Du        
    653 ****         4.0000   6.5000  -4.5000 Du        
    654 ****         4.0000   6.5000   8.7500 Du        
    655 ****         4.0000   6.7500  -7.0000 Du        
    656 ****         4.0000   6.7500  -6.7500 Du        
    657 ****         4.0000   6.7500  -6.5000 Du        
    658 ****         4.0000   6.7500  -6.2500 Du        
    659 ****         4.0000   6.7500  -6.0000 Du        
    660 ****         4.0000   6.7500  -5.7500 Du        
    661 ****         4.0000   6.7500  -5.5000 Du        
    662 ****         4.0000   6.7500  -5.2500 Du        
    663 ****         4.0000   6.7500  -5.0000 Du        
    664 ****         4.0000   6.7500  -4.7500 Du        
    665 ****         4.0000   6.7500  -4.5000 Du        
    666 ****         4.0000   7.0000  -6.7500 Du        
    667 ****         4.0000   7.0000  -6.5000 Du        
    668 ****         4.0000   7.0000  -6.2500 Du        
    669 ****         4.0000   7.0000  -6.0000 Du        
    670 ****         4.0000   7.0000  -5.7500 Du        
    671 ****         4.0000   7.0000  -5.5000 Du        
    672 ****         4.0000   7.0000  -5.2500 Du        
    673 ****         4.0000   7.0000  -5.0000 Du        
    674 ****         4.0000   7.0000  -4.7500 Du        
    675 ****         4.0000   7.2500  -6.2500 Du        
    676 ****         4.0000   7.2500  -6.0000 Du        
    677 ****         4.0000   7.2500  -5.7500 Du        
    678 ****         4.0000   7.2500  -5.5000 Du        
    679 ****         4.0000   7.2500  -5.2500 Du        
    680 ****         4.0000   7.2500  -5.0000 Du        
    681 ****         4.0000   7.2500  -4.7500 Du        
    682 ****         4.0000   7.5000  -6.0000 Du        
    683 ****         4.0000   7.5000  -5.7500 Du        
    684 ****         4.0000   7.5000  -5.5000 Du        
    685 ****         4.0000   7.5000  -5.2500 Du        
    686 ****         4.0000   7.5000  -5.0000 Du        
    687 ****         4.0000   7.7500  -5.7500 Du        
    688 ****         4.0000   7.7500  -5.5000 Du        
    689 ****         4.0000   7.7500  -5.2500 Du        
    690 ****         4.0000   7.7500  -5.0000 Du        
    691 ****         4.0000   8.0000  -5.2500 Du        
    692 ****         4.0000  11.5000   1.5000 Du        
    693 ****         4.0000  11.5000   1.7500 Du        
    694 ****         4.0000  11.5000   2.0000 Du        
    695 ****         4.0000  11.7500   1.2500 Du        
    696 ****         4.0000  11.7500   1.5000 Du        
    697 ****         4.0000  11.7500   1.7500 Du        
    698 ****         4.0000  11.7500   2.0000 Du        
    699 ****         4.0000  11.7500   2.2500 Du        
    700 ****         4.0000  12.0000   1.0000 Du        
    701 ****         4.0000  12.0000   1.2500 Du        
    702 ****         4.0000  12.0000   1.5000 Du        
    703 ****         4.0000  12.0000   1.7500 Du        
    704 ****         4.0000  12.0000   2.0000 Du        
    705 ****         4.0000  12.0000   2.2500 Du        
    706 ****         4.0000  12.0000   2.5000 Du        
    707 ****         4.0000  12.0000   2.7500 Du        
    708 ****         4.2500   4.0000  -5.5000 Du        
    709 ****         4.2500   4.2500  -5.7500 Du        
    710 ****         4.2500   4.5000  -6.0000 Du        
    711 ****         4.2500   4.5000  -5.7500 Du        
    712 ****         4.2500   4.5000  -5.5000 Du        
    713 ****         4.2500   4.7500  -6.0000 Du        
    714 ****         4.2500   4.7500  -5.7500 Du        
    715 ****         4.2500   4.7500  -5.5000 Du        
    716 ****         4.2500   4.7500  -5.2500 Du        
    717 ****         4.2500   5.0000  -6.2500 Du        
    718 ****         4.2500   5.0000  -6.0000 Du        
    719 ****         4.2500   5.0000  -5.7500 Du        
    720 ****         4.2500   5.0000  -5.5000 Du        
    721 ****         4.2500   5.0000  -5.2500 Du        
    722 ****         4.2500   5.0000  -5.0000 Du        
    723 ****         4.2500   5.2500  -6.2500 Du        
    724 ****         4.2500   5.2500  -6.0000 Du        
    725 ****         4.2500   5.2500  -5.7500 Du        
    726 ****         4.2500   5.2500  -5.5000 Du        
    727 ****         4.2500   5.2500  -5.2500 Du        
    728 ****         4.2500   5.2500  -5.0000 Du        
    729 ****         4.2500   5.5000  -6.7500 Du        
    730 ****         4.2500   5.5000  -6.5000 Du        
    731 ****         4.2500   5.5000  -6.2500 Du        
    732 ****         4.2500   5.5000  -6.0000 Du        
    733 ****         4.2500   5.5000  -5.7500 Du        
    734 ****         4.2500   5.5000  -5.5000 Du        
    735 ****         4.2500   5.5000  -5.2500 Du        
    736 ****         4.2500   5.5000  -5.0000 Du        
    737 ****         4.2500   5.5000  -4.7500 Du        
    738 ****         4.2500   5.7500  -7.0000 Du        
    739 ****         4.2500   5.7500  -6.7500 Du        
    740 ****         4.2500   5.7500  -6.5000 Du        
    741 ****         4.2500   5.7500  -6.2500 Du        
    742 ****         4.2500   5.7500  -6.0000 Du        
    743 ****         4.2500   5.7500  -5.7500 Du        
    744 ****         4.2500   5.7500  -5.5000 Du        
    745 ****         4.2500   5.7500  -5.2500 Du        
    746 ****         4.2500   5.7500  -5.0000 Du        
    747 ****         4.2500   5.7500  -4.7500 Du        
    748 ****         4.2500   6.0000  -7.0000 Du        
    749 ****         4.2500   6.0000  -6.7500 Du        
    750 ****         4.2500   6.0000  -6.5000 Du        
    751 ****         4.2500   6.0000  -6.2500 Du        
    752 ****         4.2500   6.0000  -6.0000 Du        
    753 ****         4.2500   6.0000  -5.7500 Du        
    754 ****         4.2500   6.0000  -5.5000 Du        
    755 ****         4.2500   6.0000  -5.2500 Du        
    756 ****         4.2500   6.0000  -5.0000 Du        
    757 ****         4.2500   6.0000  -4.7500 Du        
    758 ****         4.2500   6.0000  -4.5000 Du        
    759 ****         4.2500   6.2500  -7.0000 Du        
    760 ****         4.2500   6.2500  -6.7500 Du        
    761 ****         4.2500   6.2500  -6.5000 Du        
    762 ****         4.2500   6.2500  -6.2500 Du        
    763 ****         4.2500   6.2500  -6.0000 Du        
    764 ****         4.2500   6.2500  -5.7500 Du        
    765 ****         4.2500   6.2500  -5.5000 Du        
    766 ****         4.2500   6.2500  -5.2500 Du        
    767 ****         4.2500   6.2500  -5.0000 Du        
    768 ****         4.2500   6.2500  -4.7500 Du        
    769 ****         4.2500   6.2500  -4.5000 Du        
    770 ****         4.2500   6.2500   8.7500 Du        
    771 ****         4.2500   6.5000  -7.0000 Du        
    772 ****         4.2500   6.5000  -6.7500 Du        
    773 ****         4.2500   6.5000  -6.5000 Du        
    774 ****         4.2500   6.5000  -6.2500 Du        
    775 ****         4.2500   6.5000  -6.0000 Du        
    776 ****         4.2500   6.5000  -5.7500 Du        
    777 ****         4.2500   6.5000  -5.5000 Du        
    778 ****         4.2500   6.5000  -5.2500 Du        
    779 ****         4.2500   6.5000  -5.0000 Du        
    780 ****         4.2500   6.5000  -4.7500 Du        
    781 ****         4.2500   6.5000  -4.5000 Du        
    782 ****         4.2500   6.5000   8.7500 Du        
    783 ****         4.2500   6.7500  -7.0000 Du        
    784 ****         4.2500   6.7500  -6.7500 Du        
    785 ****         4.2500   6.7500  -6.5000 Du        
    786 ****         4.2500   6.7500  -6.2500 Du        
    787 ****         4.2500   6.7500  -6.0000 Du        
    788 ****         4.2500   6.7500  -5.7500 Du        
    789 ****         4.2500   6.7500  -5.5000 Du        
    790 ****         4.2500   6.7500  -5.2500 Du        
    791 ****         4.2500   6.7500  -5.0000 Du        
    792 ****         4.2500   6.7500  -4.7500 Du        
    793 ****         4.2500   6.7500  -4.5000 Du        
    794 ****         4.2500   7.0000  -6.2500 Du        
    795 ****         4.2500   7.0000  -6.0000 Du        
    796 ****         4.2500   7.0000  -5.7500 Du        
    797 ****         4.2500   7.0000  -5.5000 Du        
    798 ****         4.2500   7.0000  -5.2500 Du        
    799 ****         4.2500   7.0000  -5.0000 Du        
    800 ****         4.2500   7.0000  -4.7500 Du        
    801 ****         4.2500   7.2500  -6.0000 Du        
    802 ****         4.2500   7.2500  -5.7500 Du        
    803 ****         4.2500   7.2500  -5.5000 Du        
    804 ****         4.2500   7.2500  -5.2500 Du        
    805 ****         4.2500   7.2500  -5.0000 Du        
    806 ****         4.2500   7.2500  -4.7500 Du        
    807 ****         4.2500   7.5000  -5.5000 Du        
    808 ****         4.2500   7.5000  -5.2500 Du        
    809 ****         4.2500   7.5000  -5.0000 Du        
    810 ****         4.2500  12.0000   1.2500 Du        
    811 ****         4.2500  12.0000   1.5000 Du        
    812 ****         4.2500  12.0000   1.7500 Du        
    813 ****         4.2500  12.0000   2.0000 Du        
    814 ****         4.2500  12.0000   2.2500 Du        
    815 ****         4.5000   3.7500  -6.0000 Du        
    816 ****         4.5000   3.7500  -5.7500 Du        
    817 ****         4.5000   3.7500  -5.5000 Du        
    818 ****         4.5000   4.0000  -6.0000 Du        
    819 ****         4.5000   4.0000  -5.7500 Du        
    820 ****         4.5000   4.0000  -5.5000 Du        
    821 ****         4.5000   4.2500  -6.0000 Du        
    822 ****         4.5000   4.2500  -5.7500 Du        
    823 ****         4.5000   4.2500  -5.5000 Du        
    824 ****         4.5000   4.5000  -5.7500 Du        
    825 ****         4.5000   4.5000  -5.5000 Du        
    826 ****         4.5000   4.7500  -6.2500 Du        
    827 ****         4.5000   4.7500  -6.0000 Du        
    828 ****         4.5000   4.7500  -5.7500 Du        
    829 ****         4.5000   4.7500  -5.5000 Du        
    830 ****         4.5000   5.0000  -6.5000 Du        
    831 ****         4.5000   5.0000  -6.2500 Du        
    832 ****         4.5000   5.0000  -6.0000 Du        
    833 ****         4.5000   5.0000  -5.7500 Du        
    834 ****         4.5000   5.0000  -5.5000 Du        
    835 ****         4.5000   5.0000  -5.2500 Du        
    836 ****         4.5000   5.2500  -6.5000 Du        
    837 ****         4.5000   5.2500  -6.2500 Du        
    838 ****         4.5000   5.2500  -6.0000 Du        
    839 ****         4.5000   5.2500  -5.7500 Du        
    840 ****         4.5000   5.2500  -5.5000 Du        
    841 ****         4.5000   5.2500  -5.2500 Du        
    842 ****         4.5000   5.5000  -6.5000 Du        
    843 ****         4.5000   5.5000  -6.2500 Du        
    844 ****         4.5000   5.5000  -6.0000 Du        
    845 ****         4.5000   5.5000  -5.7500 Du        
    846 ****         4.5000   5.5000  -5.5000 Du        
    847 ****         4.5000   5.5000  -5.2500 Du        
    848 ****         4.5000   5.5000  -5.0000 Du        
    849 ****         4.5000   5.7500  -6.7500 Du        
    850 ****         4.5000   5.7500  -6.5000 Du        
    851 ****         4.5000   5.7500  -6.2500 Du        
    852 ****         4.5000   5.7500  -6.0000 Du        
    853 ****         4.5000   5.7500  -5.7500 Du        
    854 ****         4.5000   5.7500  -5.5000 Du        
    855 ****         4.5000   5.7500  -5.2500 Du        
    856 ****         4.5000   5.7500  -5.0000 Du        
    857 ****         4.5000   6.0000  -6.7500 Du        
    858 ****         4.5000   6.0000  -6.5000 Du        
    859 ****         4.5000   6.0000  -6.2500 Du        
    860 ****         4.5000   6.0000  -6.0000 Du        
    861 ****         4.5000   6.0000  -5.7500 Du        
    862 ****         4.5000   6.0000  -5.5000 Du        
    863 ****         4.5000   6.0000  -5.2500 Du        
    864 ****         4.5000   6.0000  -5.0000 Du        
    865 ****         4.5000   6.0000  -4.7500 Du        
    866 ****         4.5000   6.2500  -7.0000 Du        
    867 ****         4.5000   6.2500  -6.7500 Du        
    868 ****         4.5000   6.2500  -6.5000 Du        
    869 ****         4.5000   6.2500  -6.2500 Du        
    870 ****         4.5000   6.2500  -6.0000 Du        
    871 ****         4.5000   6.2500  -5.7500 Du        
    872 ****         4.5000   6.2500  -5.5000 Du        
    873 ****         4.5000   6.2500  -5.2500 Du        
    874 ****         4.5000   6.2500  -5.0000 Du        
    875 ****         4.5000   6.2500  -4.7500 Du        
    876 ****         4.5000   6.2500  -4.5000 Du        
    877 ****         4.5000   6.5000  -6.7500 Du        
    878 ****         4.5000   6.5000  -6.5000 Du        
    879 ****         4.5000   6.5000  -6.2500 Du        
    880 ****         4.5000   6.5000  -6.0000 Du        
    881 ****         4.5000   6.5000  -5.7500 Du        
    882 ****         4.5000   6.5000  -5.5000 Du        
    883 ****         4.5000   6.5000  -5.2500 Du        
    884 ****         4.5000   6.5000  -5.0000 Du        
    885 ****         4.5000   6.5000  -4.7500 Du        
    886 ****         4.5000   6.5000  -4.5000 Du        
    887 ****         4.5000   6.5000   8.7500 Du        
    888 ****         4.5000   6.7500  -6.5000 Du        
    889 ****         4.5000   6.7500  -6.2500 Du        
    890 ****         4.5000   6.7500  -6.0000 Du        
    891 ****         4.5000   6.7500  -5.7500 Du        
    892 ****         4.5000   6.7500  -5.5000 Du        
    893 ****         4.5000   6.7500  -5.2500 Du        
    894 ****         4.5000   6.7500  -5.0000 Du        
    895 ****         4.5000   6.7500  -4.7500 Du        
    896 ****         4.5000   7.0000  -6.2500 Du        
    897 ****         4.5000   7.0000  -6.0000 Du        
    898 ****         4.5000   7.0000  -5.7500 Du        
    899 ****         4.5000   7.0000  -5.5000 Du        
    900 ****         4.5000   7.0000  -5.2500 Du        
    901 ****         4.5000   7.0000  -5.0000 Du        
    902 ****         4.5000   7.0000  -4.7500 Du        
    903 ****         4.5000   7.2500  -5.5000 Du        
    904 ****         4.5000   7.2500  -5.2500 Du        
    905 ****         4.5000   7.2500  -5.0000 Du        
    906 ****         4.7500   5.5000  -6.0000 Du        
    907 ****         4.7500   5.5000  -5.5000 Du        
    908 ****         4.7500   5.7500  -6.0000 Du        
    909 ****         4.7500   5.7500  -5.7500 Du        
    910 ****         4.7500   5.7500  -5.5000 Du        
    911 ****         4.7500   5.7500  -5.2500 Du        
    912 ****         4.7500   6.0000  -6.2500 Du        
    913 ****         4.7500   6.0000  -6.0000 Du        
    914 ****         4.7500   6.0000  -5.7500 Du        
    915 ****         4.7500   6.0000  -5.5000 Du        
    916 ****         4.7500   6.0000  -5.2500 Du        
    917 ****         4.7500   6.0000  -5.0000 Du        
    918 ****         4.7500   6.2500  -6.2500 Du        
    919 ****         4.7500   6.2500  -6.0000 Du        
    920 ****         4.7500   6.2500  -5.7500 Du        
    921 ****         4.7500   6.2500  -5.5000 Du        
    922 ****         4.7500   6.2500  -5.2500 Du        
    923 ****         4.7500   6.2500  -5.0000 Du        
    924 ****         4.7500   6.5000  -6.2500 Du        
    925 ****         4.7500   6.5000  -6.0000 Du        
    926 ****         4.7500   6.5000  -5.7500 Du        
    927 ****         4.7500   6.5000  -5.5000 Du        
    928 ****         4.7500   6.5000  -5.2500 Du        
    929 ****         4.7500   6.5000  -5.0000 Du        
    930 ****         4.7500   6.5000  -4.7500 Du        
    931 ****         4.7500   6.7500  -6.0000 Du        
    932 ****         4.7500   6.7500  -5.7500 Du        
    933 ****         4.7500   6.7500  -5.5000 Du        
    934 ****         4.7500   6.7500  -5.2500 Du        
    935 ****         4.7500   6.7500  -5.0000 Du        
    936 ****         4.7500   6.7500  -4.7500 Du        
    937 ****         4.7500   7.0000  -5.5000 Du        
    938 ****         4.7500   7.0000  -5.2500 Du        
    939 ****         4.7500   7.0000  -5.0000 Du        
    940 ****         4.7500   7.0000  -4.7500 Du        
    941 ****         5.0000   6.2500   9.2500 Du        
    942 ****         5.0000   6.5000  -5.5000 Du        
    943 ****         5.0000   6.5000  -5.2500 Du        
    944 ****         5.0000   6.5000   9.2500 Du        
    945 ****         5.0000   6.7500  -5.2500 Du        
    946 ****         5.0000   6.7500  -5.0000 Du        
    947 ****         5.0000   6.7500   9.0000 Du        
    948 ****         5.0000   6.7500   9.2500 Du        
    949 ****         5.0000   7.0000   9.0000 Du        
    950 ****         5.0000   7.0000   9.2500 Du        
    951 ****         5.0000  13.0000   2.0000 Du        
    952 ****         5.0000  13.0000   2.2500 Du        
    953 ****         5.0000  13.0000   2.5000 Du        
    954 ****         5.0000  13.0000   2.7500 Du        
    955 ****         5.0000  13.0000   3.0000 Du        
    956 ****         5.0000  13.0000   3.2500 Du        
    957 ****         5.0000  13.2500   1.7500 Du        
    958 ****         5.0000  13.2500   2.0000 Du        
    959 ****         5.0000  13.2500   2.2500 Du        
    960 ****         5.0000  13.2500   2.5000 Du        
    961 ****         5.0000  13.2500   2.7500 Du        
    962 ****         5.0000  13.2500   3.0000 Du        
    963 ****         5.0000  13.2500   3.2500 Du        
    964 ****         5.0000  13.2500   3.5000 Du        
    965 ****         5.0000  13.5000   1.7500 Du        
    966 ****         5.0000  13.5000   2.0000 Du        
    967 ****         5.0000  13.5000   2.2500 Du        
    968 ****         5.0000  13.5000   2.5000 Du        
    969 ****         5.0000  13.5000   2.7500 Du        
    970 ****         5.0000  13.5000   3.0000 Du        
    971 ****         5.0000  13.5000   3.2500 Du        
    972 ****         5.0000  13.7500   2.0000 Du        
    973 ****         5.0000  13.7500   2.2500 Du        
    974 ****         5.0000  13.7500   2.5000 Du        
    975 ****         5.0000  13.7500   2.7500 Du        
    976 ****         5.0000  13.7500   3.0000 Du        
    977 ****         5.0000  13.7500   3.2500 Du        
    978 ****         5.0000  14.0000   2.0000 Du        
    979 ****         5.0000  14.0000   2.2500 Du        
    980 ****         5.0000  14.0000   2.5000 Du        
    981 ****         5.0000  14.0000   2.7500 Du        
    982 ****         5.0000  14.0000   3.0000 Du        
    983 ****         5.0000  14.0000   3.2500 Du        
    984 ****         5.0000  14.2500   2.2500 Du        
    985 ****         5.0000  14.2500   2.5000 Du        
    986 ****         5.0000  14.2500   2.7500 Du        
    987 ****         5.0000  14.2500   3.0000 Du        
    988 ****         5.2500   6.7500   9.2500 Du        
    989 ****         5.2500  13.0000   2.0000 Du        
    990 ****         5.2500  13.0000   2.2500 Du        
    991 ****         5.2500  13.0000   2.5000 Du        
    992 ****         5.2500  13.0000   2.7500 Du        
    993 ****         5.2500  13.0000   3.0000 Du        
    994 ****         5.2500  13.2500   2.0000 Du        
    995 ****         5.2500  13.2500   2.2500 Du        
    996 ****         5.2500  13.2500   2.5000 Du        
    997 ****         5.2500  13.2500   2.7500 Du        
    998 ****         5.2500  13.2500   3.0000 Du        
    999 ****         5.2500  13.2500   3.2500 Du        
   1000 ****         5.2500  13.2500   3.5000 Du        
   1001 ****         5.2500  13.5000   2.0000 Du        
   1002 ****         5.2500  13.5000   2.2500 Du        
   1003 ****         5.2500  13.5000   2.5000 Du        
   1004 ****         5.2500  13.5000   2.7500 Du        
   1005 ****         5.2500  13.5000   3.0000 Du        
   1006 ****         5.2500  13.5000   3.2500 Du        
   1007 ****         5.2500  13.7500   2.0000 Du        
   1008 ****         5.2500  13.7500   2.2500 Du        
   1009 ****         5.2500  13.7500   2.5000 Du        
   1010 ****         5.2500  13.7500   2.7500 Du        
   1011 ****         5.2500  13.7500   3.0000 Du        
   1012 ****         5.2500  13.7500   3.2500 Du        
   1013 ****         5.2500  13.7500   3.5000 Du        
   1014 ****         5.2500  14.0000   2.0000 Du        
   1015 ****         5.2500  14.0000   2.2500 Du        
   1016 ****         5.2500  14.0000   2.5000 Du        
   1017 ****         5.2500  14.0000   2.7500 Du        
   1018 ****         5.2500  14.0000   3.0000 Du        
   1019 ****         5.2500  14.0000   3.2500 Du        
   1020 ****         5.2500  14.0000   3.5000 Du        
   1021 ****         5.2500  14.2500   2.2500 Du        
   1022 ****         5.2500  14.2500   2.5000 Du        
   1023 ****         5.2500  14.2500   2.7500 Du        
   1024 ****         5.2500  14.2500   3.0000 Du        
   1025 ****         5.2500  14.2500   3.2500 Du        
   1026 ****         5.5000  13.2500   2.0000 Du        
   1027 ****         5.5000  13.2500   2.2500 Du        
   1028 ****         5.5000  13.2500   2.5000 Du        
   1029 ****         5.5000  13.2500   2.7500 Du        
   1030 ****         5.5000  13.2500   3.0000 Du        
   1031 ****         5.5000  13.2500   3.2500 Du        
   1032 ****         5.5000  13.2500   3.5000 Du        
   1033 ****         5.5000  13.5000   2.0000 Du        
   1034 ****         5.5000  13.5000   2.2500 Du        
   1035 ****         5.5000  13.5000   2.5000 Du        
   1036 ****         5.5000  13.5000   2.7500 Du        
   1037 ****         5.5000  13.5000   3.0000 Du        
   1038 ****         5.5000  13.5000   3.2500 Du        
   1039 ****         5.5000  13.5000   3.5000 Du        
   1040 ****         5.5000  13.5000   3.7500 Du        
   1041 ****         5.5000  13.7500   2.0000 Du        
   1042 ****         5.5000  13.7500   2.2500 Du        
   1043 ****         5.5000  13.7500   2.5000 Du        
   1044 ****         5.5000  13.7500   2.7500 Du        
   1045 ****         5.5000  13.7500   3.0000 Du        
   1046 ****         5.5000  13.7500   3.2500 Du        
   1047 ****         5.5000  13.7500   3.5000 Du        
   1048 ****         5.5000  13.7500   3.7500 Du        
   1049 ****         5.5000  13.7500   4.0000 Du        
   1050 ****         5.5000  14.0000   2.0000 Du        
   1051 ****         5.5000  14.0000   2.2500 Du        
   1052 ****         5.5000  14.0000   2.5000 Du        
   1053 ****         5.5000  14.0000   2.7500 Du        
   1054 ****         5.5000  14.0000   3.0000 Du        
   1055 ****         5.5000  14.0000   3.2500 Du        
   1056 ****         5.5000  14.0000   3.5000 Du        
   1057 ****         5.5000  14.0000   3.7500 Du        
   1058 ****         5.5000  14.0000   4.0000 Du        
   1059 ****         5.5000  14.2500   2.2500 Du        
   1060 ****         5.5000  14.2500   2.5000 Du        
   1061 ****         5.5000  14.2500   2.7500 Du        
   1062 ****         5.5000  14.2500   3.0000 Du        
   1063 ****         5.5000  14.2500   3.2500 Du        
   1064 ****         5.5000  14.2500   3.5000 Du        
   1065 ****         5.5000  14.2500   3.7500 Du        
   1066 ****         5.7500   7.2500   9.2500 Du        
   1067 ****         5.7500  13.2500   2.2500 Du        
   1068 ****         5.7500  13.2500   2.5000 Du        
   1069 ****         5.7500  13.2500   2.7500 Du        
   1070 ****         5.7500  13.2500   3.0000 Du        
   1071 ****         5.7500  13.2500   3.2500 Du        
   1072 ****         5.7500  13.5000   2.0000 Du        
   1073 ****         5.7500  13.5000   2.2500 Du        
   1074 ****         5.7500  13.5000   2.5000 Du        
   1075 ****         5.7500  13.5000   2.7500 Du        
   1076 ****         5.7500  13.5000   3.0000 Du        
   1077 ****         5.7500  13.5000   3.2500 Du        
   1078 ****         5.7500  13.5000   3.5000 Du        
   1079 ****         5.7500  13.5000   3.7500 Du        
   1080 ****         5.7500  13.7500   2.0000 Du        
   1081 ****         5.7500  13.7500   2.2500 Du        
   1082 ****         5.7500  13.7500   2.5000 Du        
   1083 ****         5.7500  13.7500   2.7500 Du        
   1084 ****         5.7500  13.7500   3.0000 Du        
   1085 ****         5.7500  13.7500   3.2500 Du        
   1086 ****         5.7500  13.7500   3.5000 Du        
   1087 ****         5.7500  13.7500   3.7500 Du        
   1088 ****         5.7500  13.7500   4.0000 Du        
   1089 ****         5.7500  14.0000   2.2500 Du        
   1090 ****         5.7500  14.0000   2.5000 Du        
   1091 ****         5.7500  14.0000   2.7500 Du        
   1092 ****         5.7500  14.0000   3.0000 Du        
   1093 ****         5.7500  14.0000   3.2500 Du        
   1094 ****         5.7500  14.0000   3.5000 Du        
   1095 ****         5.7500  14.0000   3.7500 Du        
   1096 ****         5.7500  14.0000   4.0000 Du        
   1097 ****         5.7500  14.2500   2.2500 Du        
   1098 ****         5.7500  14.2500   2.5000 Du        
   1099 ****         5.7500  14.2500   2.7500 Du        
   1100 ****         5.7500  14.2500   3.0000 Du        
   1101 ****         5.7500  14.2500   3.2500 Du        
   1102 ****         5.7500  14.2500   3.5000 Du        
   1103 ****         5.7500  14.2500   3.7500 Du        
   1104 ****         5.7500  14.2500   4.0000 Du        
   1105 ****         5.7500  14.5000   3.2500 Du        
   1106 ****         5.7500  14.5000   3.5000 Du        
   1107 ****         5.7500  14.5000   3.7500 Du        
   1108 ****         6.0000   1.2500  -7.0000 Du        
   1109 ****         6.0000   1.2500  -6.7500 Du        
   1110 ****         6.0000  13.2500   2.2500 Du        
   1111 ****         6.0000  13.2500   2.5000 Du        
   1112 ****         6.0000  13.2500   2.7500 Du        
   1113 ****         6.0000  13.2500   3.0000 Du        
   1114 ****         6.0000  13.5000   2.2500 Du        
   1115 ****         6.0000  13.5000   2.5000 Du        
   1116 ****         6.0000  13.5000   2.7500 Du        
   1117 ****         6.0000  13.5000   3.0000 Du        
   1118 ****         6.0000  13.5000   3.2500 Du        
   1119 ****         6.0000  13.5000   3.5000 Du        
   1120 ****         6.0000  13.5000   3.7500 Du        
   1121 ****         6.0000  13.7500   2.0000 Du        
   1122 ****         6.0000  13.7500   2.2500 Du        
   1123 ****         6.0000  13.7500   2.5000 Du        
   1124 ****         6.0000  13.7500   2.7500 Du        
   1125 ****         6.0000  13.7500   3.0000 Du        
   1126 ****         6.0000  13.7500   3.2500 Du        
   1127 ****         6.0000  13.7500   3.5000 Du        
   1128 ****         6.0000  13.7500   3.7500 Du        
   1129 ****         6.0000  13.7500   4.0000 Du        
   1130 ****         6.0000  14.0000   2.2500 Du        
   1131 ****         6.0000  14.0000   2.5000 Du        
   1132 ****         6.0000  14.0000   2.7500 Du        
   1133 ****         6.0000  14.0000   3.0000 Du        
   1134 ****         6.0000  14.0000   3.2500 Du        
   1135 ****         6.0000  14.0000   3.5000 Du        
   1136 ****         6.0000  14.0000   3.7500 Du        
   1137 ****         6.0000  14.0000   4.0000 Du        
   1138 ****         6.0000  14.2500   2.5000 Du        
   1139 ****         6.0000  14.2500   2.7500 Du        
   1140 ****         6.0000  14.2500   3.0000 Du        
   1141 ****         6.0000  14.2500   3.2500 Du        
   1142 ****         6.0000  14.2500   3.5000 Du        
   1143 ****         6.0000  14.2500   3.7500 Du        
   1144 ****         6.0000  14.2500   4.0000 Du        
   1145 ****         6.0000  14.5000   3.2500 Du        
   1146 ****         6.0000  14.5000   3.5000 Du        
   1147 ****         6.0000  14.5000   3.7500 Du        
   1148 ****         6.0000  14.5000   4.0000 Du        
   1149 ****         6.2500   0.7500  -6.7500 Du        
   1150 ****         6.2500   1.0000  -7.2500 Du        
   1151 ****         6.2500   1.0000  -7.0000 Du        
   1152 ****         6.2500   1.0000  -6.7500 Du        
   1153 ****         6.2500   1.2500  -7.2500 Du        
   1154 ****         6.2500   1.2500  -7.0000 Du        
   1155 ****         6.2500   1.2500  -6.7500 Du        
   1156 ****         6.2500   1.5000  -8.0000 Du        
   1157 ****         6.2500   1.5000  -7.7500 Du        
   1158 ****         6.2500   1.5000  -7.5000 Du        
   1159 ****         6.2500   1.5000  -7.2500 Du        
   1160 ****         6.2500   1.5000  -7.0000 Du        
   1161 ****         6.2500   1.5000  -6.7500 Du        
   1162 ****         6.2500   1.7500  -7.7500 Du        
   1163 ****         6.2500  13.5000   2.2500 Du        
   1164 ****         6.2500  13.5000   2.5000 Du        
   1165 ****         6.2500  13.5000   2.7500 Du        
   1166 ****         6.2500  13.5000   3.0000 Du        
   1167 ****         6.2500  13.5000   3.2500 Du        
   1168 ****         6.2500  13.5000   3.5000 Du        
   1169 ****         6.2500  13.7500   2.2500 Du        
   1170 ****         6.2500  13.7500   2.5000 Du        
   1171 ****         6.2500  13.7500   2.7500 Du        
   1172 ****         6.2500  13.7500   3.0000 Du        
   1173 ****         6.2500  13.7500   3.2500 Du        
   1174 ****         6.2500  13.7500   3.5000 Du        
   1175 ****         6.2500  13.7500   3.7500 Du        
   1176 ****         6.2500  13.7500   4.0000 Du        
   1177 ****         6.2500  14.0000   2.2500 Du        
   1178 ****         6.2500  14.0000   2.5000 Du        
   1179 ****         6.2500  14.0000   2.7500 Du        
   1180 ****         6.2500  14.0000   3.0000 Du        
   1181 ****         6.2500  14.0000   3.2500 Du        
   1182 ****         6.2500  14.0000   3.5000 Du        
   1183 ****         6.2500  14.0000   3.7500 Du        
   1184 ****         6.2500  14.0000   4.0000 Du        
   1185 ****         6.2500  14.0000   4.2500 Du        
   1186 ****         6.2500  14.2500   2.5000 Du        
   1187 ****         6.2500  14.2500   2.7500 Du        
   1188 ****         6.2500  14.2500   3.0000 Du        
   1189 ****         6.2500  14.2500   3.2500 Du        
   1190 ****         6.2500  14.2500   3.5000 Du        
   1191 ****         6.2500  14.2500   3.7500 Du        
   1192 ****         6.2500  14.2500   4.0000 Du        
   1193 ****         6.2500  14.2500   4.2500 Du        
   1194 ****         6.2500  14.5000   3.2500 Du        
   1195 ****         6.2500  14.5000   3.5000 Du        
   1196 ****         6.2500  14.5000   3.7500 Du        
   1197 ****         6.2500  14.5000   4.0000 Du        
   1198 ****         6.2500  14.5000   4.2500 Du        
   1199 ****         6.2500  14.7500   4.0000 Du        
   1200 ****         6.5000   0.5000  -7.0000 Du        
   1201 ****         6.5000   0.5000  -6.7500 Du        
   1202 ****         6.5000   0.5000  -6.5000 Du        
   1203 ****         6.5000   0.7500  -7.5000 Du        
   1204 ****         6.5000   0.7500  -7.2500 Du        
   1205 ****         6.5000   0.7500  -7.0000 Du        
   1206 ****         6.5000   0.7500  -6.7500 Du        
   1207 ****         6.5000   0.7500  -6.5000 Du        
   1208 ****         6.5000   1.0000  -8.0000 Du        
   1209 ****         6.5000   1.0000  -7.7500 Du        
   1210 ****         6.5000   1.0000  -7.5000 Du        
   1211 ****         6.5000   1.0000  -7.2500 Du        
   1212 ****         6.5000   1.0000  -7.0000 Du        
   1213 ****         6.5000   1.0000  -6.7500 Du        
   1214 ****         6.5000   1.0000  -6.5000 Du        
   1215 ****         6.5000   1.2500  -8.2500 Du        
   1216 ****         6.5000   1.2500  -8.0000 Du        
   1217 ****         6.5000   1.2500  -7.7500 Du        
   1218 ****         6.5000   1.2500  -7.5000 Du        
   1219 ****         6.5000   1.2500  -7.2500 Du        
   1220 ****         6.5000   1.2500  -7.0000 Du        
   1221 ****         6.5000   1.2500  -6.7500 Du        
   1222 ****         6.5000   1.2500  -6.5000 Du        
   1223 ****         6.5000   1.5000  -8.2500 Du        
   1224 ****         6.5000   1.5000  -8.0000 Du        
   1225 ****         6.5000   1.5000  -7.7500 Du        
   1226 ****         6.5000   1.5000  -7.5000 Du        
   1227 ****         6.5000   1.5000  -7.2500 Du        
   1228 ****         6.5000   1.5000  -7.0000 Du        
   1229 ****         6.5000   1.5000  -6.7500 Du        
   1230 ****         6.5000   1.5000  -6.5000 Du        
   1231 ****         6.5000   1.7500  -8.0000 Du        
   1232 ****         6.5000   1.7500  -7.7500 Du        
   1233 ****         6.5000   1.7500  -7.5000 Du        
   1234 ****         6.5000  13.2500   2.7500 Du        
   1235 ****         6.5000  13.2500   3.0000 Du        
   1236 ****         6.5000  13.5000   2.2500 Du        
   1237 ****         6.5000  13.5000   2.5000 Du        
   1238 ****         6.5000  13.5000   2.7500 Du        
   1239 ****         6.5000  13.5000   3.0000 Du        
   1240 ****         6.5000  13.5000   3.2500 Du        
   1241 ****         6.5000  13.5000   3.5000 Du        
   1242 ****         6.5000  13.7500   2.2500 Du        
   1243 ****         6.5000  13.7500   2.5000 Du        
   1244 ****         6.5000  13.7500   2.7500 Du        
   1245 ****         6.5000  13.7500   3.0000 Du        
   1246 ****         6.5000  13.7500   3.2500 Du        
   1247 ****         6.5000  13.7500   3.5000 Du        
   1248 ****         6.5000  13.7500   3.7500 Du        
   1249 ****         6.5000  13.7500   4.0000 Du        
   1250 ****         6.5000  14.0000   2.2500 Du        
   1251 ****         6.5000  14.0000   2.5000 Du        
   1252 ****         6.5000  14.0000   2.7500 Du        
   1253 ****         6.5000  14.0000   3.0000 Du        
   1254 ****         6.5000  14.0000   3.2500 Du        
   1255 ****         6.5000  14.0000   3.5000 Du        
   1256 ****         6.5000  14.0000   3.7500 Du        
   1257 ****         6.5000  14.0000   4.0000 Du        
   1258 ****         6.5000  14.0000   4.2500 Du        
   1259 ****         6.5000  14.2500   2.5000 Du        
   1260 ****         6.5000  14.2500   2.7500 Du        
   1261 ****         6.5000  14.2500   3.0000 Du        
   1262 ****         6.5000  14.2500   3.2500 Du        
   1263 ****         6.5000  14.2500   3.5000 Du        
   1264 ****         6.5000  14.2500   3.7500 Du        
   1265 ****         6.5000  14.2500   4.0000 Du        
   1266 ****         6.5000  14.2500   4.2500 Du        
   1267 ****         6.5000  14.5000   3.0000 Du        
   1268 ****         6.5000  14.5000   3.2500 Du        
   1269 ****         6.5000  14.5000   3.5000 Du        
   1270 ****         6.5000  14.5000   3.7500 Du        
   1271 ****         6.5000  14.5000   4.0000 Du        
   1272 ****         6.5000  14.5000   4.2500 Du        
   1273 ****         6.5000  14.7500   3.7500 Du        
   1274 ****         6.5000  14.7500   4.0000 Du        
   1275 ****         6.5000  14.7500   4.2500 Du        
   1276 ****         6.7500   0.5000  -7.0000 Du        
   1277 ****         6.7500   0.5000  -6.7500 Du        
   1278 ****         6.7500   0.5000  -6.5000 Du        
   1279 ****         6.7500   0.7500  -7.5000 Du        
   1280 ****         6.7500   0.7500  -7.2500 Du        
   1281 ****         6.7500   0.7500  -7.0000 Du        
   1282 ****         6.7500   0.7500  -6.7500 Du        
   1283 ****         6.7500   0.7500  -6.5000 Du        
   1284 ****         6.7500   1.0000  -8.0000 Du        
   1285 ****         6.7500   1.0000  -7.7500 Du        
   1286 ****         6.7500   1.0000  -7.5000 Du        
   1287 ****         6.7500   1.0000  -7.2500 Du        
   1288 ****         6.7500   1.0000  -7.0000 Du        
   1289 ****         6.7500   1.0000  -6.7500 Du        
   1290 ****         6.7500   1.0000  -6.5000 Du        
   1291 ****         6.7500   1.2500  -8.2500 Du        
   1292 ****         6.7500   1.2500  -8.0000 Du        
   1293 ****         6.7500   1.2500  -7.7500 Du        
   1294 ****         6.7500   1.2500  -7.5000 Du        
   1295 ****         6.7500   1.2500  -7.2500 Du        
   1296 ****         6.7500   1.2500  -7.0000 Du        
   1297 ****         6.7500   1.2500  -6.7500 Du        
   1298 ****         6.7500   1.2500  -6.5000 Du        
   1299 ****         6.7500   1.5000  -8.2500 Du        
   1300 ****         6.7500   1.5000  -8.0000 Du        
   1301 ****         6.7500   1.5000  -7.7500 Du        
   1302 ****         6.7500   1.5000  -7.5000 Du        
   1303 ****         6.7500   1.5000  -7.2500 Du        
   1304 ****         6.7500   1.5000  -7.0000 Du        
   1305 ****         6.7500   1.5000  -6.7500 Du        
   1306 ****         6.7500   1.5000  -6.5000 Du        
   1307 ****         6.7500   1.7500  -8.0000 Du        
   1308 ****         6.7500   7.0000  10.2500 Du        
   1309 ****         6.7500   7.2500  10.0000 Du        
   1310 ****         6.7500   7.2500  10.2500 Du        
   1311 ****         6.7500   7.7500   9.5000 Du        
   1312 ****         6.7500   7.7500   9.7500 Du        
   1313 ****         6.7500   7.7500  10.0000 Du        
   1314 ****         6.7500   8.0000   9.2500 Du        
   1315 ****         6.7500   8.0000   9.5000 Du        
   1316 ****         6.7500   8.0000   9.7500 Du        
   1317 ****         6.7500   8.2500   9.2500 Du        
   1318 ****         6.7500   8.2500   9.5000 Du        
   1319 ****         6.7500  13.2500   2.7500 Du        
   1320 ****         6.7500  13.5000   2.2500 Du        
   1321 ****         6.7500  13.5000   2.5000 Du        
   1322 ****         6.7500  13.5000   2.7500 Du        
   1323 ****         6.7500  13.5000   3.0000 Du        
   1324 ****         6.7500  13.5000   3.2500 Du        
   1325 ****         6.7500  13.5000   3.5000 Du        
   1326 ****         6.7500  13.7500   2.2500 Du        
   1327 ****         6.7500  13.7500   2.5000 Du        
   1328 ****         6.7500  13.7500   2.7500 Du        
   1329 ****         6.7500  13.7500   3.0000 Du        
   1330 ****         6.7500  13.7500   3.2500 Du        
   1331 ****         6.7500  13.7500   3.5000 Du        
   1332 ****         6.7500  13.7500   3.7500 Du        
   1333 ****         6.7500  14.0000   2.2500 Du        
   1334 ****         6.7500  14.0000   2.5000 Du        
   1335 ****         6.7500  14.0000   2.7500 Du        
   1336 ****         6.7500  14.0000   3.0000 Du        
   1337 ****         6.7500  14.0000   3.2500 Du        
   1338 ****         6.7500  14.0000   3.5000 Du        
   1339 ****         6.7500  14.0000   3.7500 Du        
   1340 ****         6.7500  14.0000   4.0000 Du        
   1341 ****         6.7500  14.0000   4.2500 Du        
   1342 ****         6.7500  14.2500   2.5000 Du        
   1343 ****         6.7500  14.2500   2.7500 Du        
   1344 ****         6.7500  14.2500   3.0000 Du        
   1345 ****         6.7500  14.2500   3.2500 Du        
   1346 ****         6.7500  14.2500   3.5000 Du        
   1347 ****         6.7500  14.2500   3.7500 Du        
   1348 ****         6.7500  14.2500   4.0000 Du        
   1349 ****         6.7500  14.2500   4.2500 Du        
   1350 ****         6.7500  14.5000   3.0000 Du        
   1351 ****         6.7500  14.5000   3.2500 Du        
   1352 ****         6.7500  14.5000   3.5000 Du        
   1353 ****         6.7500  14.5000   3.7500 Du        
   1354 ****         6.7500  14.5000   4.0000 Du        
   1355 ****         6.7500  14.5000   4.2500 Du        
   1356 ****         6.7500  14.7500   3.5000 Du        
   1357 ****         6.7500  14.7500   3.7500 Du        
   1358 ****         6.7500  14.7500   4.0000 Du        
   1359 ****         6.7500  14.7500   4.2500 Du        
   1360 ****         6.7500  15.0000   4.0000 Du        
   1361 ****         6.7500  15.0000   4.2500 Du        
   1362 ****         7.0000   0.5000  -7.0000 Du        
   1363 ****         7.0000   0.5000  -6.7500 Du        
   1364 ****         7.0000   0.5000  -6.5000 Du        
   1365 ****         7.0000   0.7500  -7.5000 Du        
   1366 ****         7.0000   0.7500  -7.2500 Du        
   1367 ****         7.0000   0.7500  -7.0000 Du        
   1368 ****         7.0000   0.7500  -6.7500 Du        
   1369 ****         7.0000   0.7500  -6.5000 Du        
   1370 ****         7.0000   1.0000  -8.0000 Du        
   1371 ****         7.0000   1.0000  -7.7500 Du        
   1372 ****         7.0000   1.0000  -7.5000 Du        
   1373 ****         7.0000   1.0000  -7.2500 Du        
   1374 ****         7.0000   1.0000  -7.0000 Du        
   1375 ****         7.0000   1.0000  -6.7500 Du        
   1376 ****         7.0000   1.0000  -6.5000 Du        
   1377 ****         7.0000   1.2500  -8.2500 Du        
   1378 ****         7.0000   1.2500  -8.0000 Du        
   1379 ****         7.0000   1.2500  -7.7500 Du        
   1380 ****         7.0000   1.2500  -7.5000 Du        
   1381 ****         7.0000   1.2500  -7.2500 Du        
   1382 ****         7.0000   1.2500  -7.0000 Du        
   1383 ****         7.0000   1.2500  -6.7500 Du        
   1384 ****         7.0000   1.2500  -6.5000 Du        
   1385 ****         7.0000   1.5000  -8.2500 Du        
   1386 ****         7.0000   1.5000  -8.0000 Du        
   1387 ****         7.0000   1.5000  -7.7500 Du        
   1388 ****         7.0000   1.5000  -7.5000 Du        
   1389 ****         7.0000   1.5000  -7.2500 Du        
   1390 ****         7.0000   1.5000  -7.0000 Du        
   1391 ****         7.0000   1.5000  -6.7500 Du        
   1392 ****         7.0000   7.7500   9.5000 Du        
   1393 ****         7.0000   7.7500   9.7500 Du        
   1394 ****         7.0000   7.7500  10.0000 Du        
   1395 ****         7.0000   8.0000   9.2500 Du        
   1396 ****         7.0000   8.0000   9.5000 Du        
   1397 ****         7.0000   8.0000   9.7500 Du        
   1398 ****         7.0000   8.0000  10.0000 Du        
   1399 ****         7.0000   8.2500   9.2500 Du        
   1400 ****         7.0000   8.2500   9.5000 Du        
   1401 ****         7.0000   8.2500   9.7500 Du        
   1402 ****         7.0000   8.2500  10.0000 Du        
   1403 ****         7.0000  13.5000   2.2500 Du        
   1404 ****         7.0000  13.5000   2.5000 Du        
   1405 ****         7.0000  13.5000   2.7500 Du        
   1406 ****         7.0000  13.5000   3.0000 Du        
   1407 ****         7.0000  13.5000   3.2500 Du        
   1408 ****         7.0000  13.7500   2.2500 Du        
   1409 ****         7.0000  13.7500   2.5000 Du        
   1410 ****         7.0000  13.7500   2.7500 Du        
   1411 ****         7.0000  13.7500   3.0000 Du        
   1412 ****         7.0000  13.7500   3.2500 Du        
   1413 ****         7.0000  13.7500   3.5000 Du        
   1414 ****         7.0000  13.7500   3.7500 Du        
   1415 ****         7.0000  14.0000   2.2500 Du        
   1416 ****         7.0000  14.0000   2.5000 Du        
   1417 ****         7.0000  14.0000   2.7500 Du        
   1418 ****         7.0000  14.0000   3.0000 Du        
   1419 ****         7.0000  14.0000   3.2500 Du        
   1420 ****         7.0000  14.0000   3.5000 Du        
   1421 ****         7.0000  14.0000   3.7500 Du        
   1422 ****         7.0000  14.0000   4.0000 Du        
   1423 ****         7.0000  14.0000   4.2500 Du        
   1424 ****         7.0000  14.2500   2.5000 Du        
   1425 ****         7.0000  14.2500   2.7500 Du        
   1426 ****         7.0000  14.2500   3.0000 Du        
   1427 ****         7.0000  14.2500   3.2500 Du        
   1428 ****         7.0000  14.2500   3.5000 Du        
   1429 ****         7.0000  14.2500   3.7500 Du        
   1430 ****         7.0000  14.2500   4.0000 Du        
   1431 ****         7.0000  14.2500   4.2500 Du        
   1432 ****         7.0000  14.5000   3.0000 Du        
   1433 ****         7.0000  14.5000   3.2500 Du        
   1434 ****         7.0000  14.5000   3.5000 Du        
   1435 ****         7.0000  14.5000   3.7500 Du        
   1436 ****         7.0000  14.5000   4.0000 Du        
   1437 ****         7.0000  14.5000   4.2500 Du        
   1438 ****         7.0000  14.7500   3.5000 Du        
   1439 ****         7.0000  14.7500   3.7500 Du        
   1440 ****         7.0000  14.7500   4.0000 Du        
   1441 ****         7.0000  14.7500   4.2500 Du        
   1442 ****         7.0000  15.0000   4.0000 Du        
   1443 ****         7.0000  15.0000   4.2500 Du        
   1444 ****         7.2500   0.5000  -6.7500 Du        
   1445 ****         7.2500   0.5000  -6.5000 Du        
   1446 ****         7.2500   0.7500  -7.2500 Du        
   1447 ****         7.2500   0.7500  -7.0000 Du        
   1448 ****         7.2500   0.7500  -6.7500 Du        
   1449 ****         7.2500   0.7500  -6.5000 Du        
   1450 ****         7.2500   1.0000  -7.7500 Du        
   1451 ****         7.2500   1.0000  -7.5000 Du        
   1452 ****         7.2500   1.0000  -7.2500 Du        
   1453 ****         7.2500   1.0000  -7.0000 Du        
   1454 ****         7.2500   1.0000  -6.7500 Du        
   1455 ****         7.2500   1.0000  -6.5000 Du        
   1456 ****         7.2500   1.2500  -8.2500 Du        
   1457 ****         7.2500   1.2500  -8.0000 Du        
   1458 ****         7.2500   1.2500  -7.7500 Du        
   1459 ****         7.2500   1.2500  -7.5000 Du        
   1460 ****         7.2500   1.2500  -7.2500 Du        
   1461 ****         7.2500   1.2500  -7.0000 Du        
   1462 ****         7.2500   1.2500  -6.7500 Du        
   1463 ****         7.2500   1.2500  -6.5000 Du        
   1464 ****         7.2500   1.5000  -8.2500 Du        
   1465 ****         7.2500   1.5000  -8.0000 Du        
   1466 ****         7.2500   1.5000  -7.7500 Du        
   1467 ****         7.2500   1.5000  -7.5000 Du        
   1468 ****         7.2500   1.5000  -7.2500 Du        
   1469 ****         7.2500   1.5000  -7.0000 Du        
   1470 ****         7.2500   1.5000  -6.7500 Du        
   1471 ****         7.2500   7.7500   9.7500 Du        
   1472 ****         7.2500   7.7500  10.0000 Du        
   1473 ****         7.2500   8.0000   9.5000 Du        
   1474 ****         7.2500   8.0000   9.7500 Du        
   1475 ****         7.2500   8.0000  10.0000 Du        
   1476 ****         7.2500   8.2500   9.2500 Du        
   1477 ****         7.2500   8.2500   9.5000 Du        
   1478 ****         7.2500   8.2500   9.7500 Du        
   1479 ****         7.2500   8.2500  10.0000 Du        
   1480 ****         7.2500   8.5000   9.2500 Du        
   1481 ****         7.2500  13.5000   2.2500 Du        
   1482 ****         7.2500  13.5000   2.5000 Du        
   1483 ****         7.2500  13.5000   2.7500 Du        
   1484 ****         7.2500  13.5000   3.0000 Du        
   1485 ****         7.2500  13.5000   3.2500 Du        
   1486 ****         7.2500  13.7500   2.2500 Du        
   1487 ****         7.2500  13.7500   2.5000 Du        
   1488 ****         7.2500  13.7500   2.7500 Du        
   1489 ****         7.2500  13.7500   3.0000 Du        
   1490 ****         7.2500  13.7500   3.2500 Du        
   1491 ****         7.2500  13.7500   3.5000 Du        
   1492 ****         7.2500  13.7500   3.7500 Du        
   1493 ****         7.2500  14.0000   2.2500 Du        
   1494 ****         7.2500  14.0000   2.5000 Du        
   1495 ****         7.2500  14.0000   2.7500 Du        
   1496 ****         7.2500  14.0000   3.0000 Du        
   1497 ****         7.2500  14.0000   3.2500 Du        
   1498 ****         7.2500  14.0000   3.5000 Du        
   1499 ****         7.2500  14.0000   3.7500 Du        
   1500 ****         7.2500  14.0000   4.0000 Du        
   1501 ****         7.2500  14.0000   4.2500 Du        
   1502 ****         7.2500  14.2500   2.2500 Du        
   1503 ****         7.2500  14.2500   2.5000 Du        
   1504 ****         7.2500  14.2500   2.7500 Du        
   1505 ****         7.2500  14.2500   3.0000 Du        
   1506 ****         7.2500  14.2500   3.2500 Du        
   1507 ****         7.2500  14.2500   3.5000 Du        
   1508 ****         7.2500  14.2500   3.7500 Du        
   1509 ****         7.2500  14.2500   4.0000 Du        
   1510 ****         7.2500  14.2500   4.2500 Du        
   1511 ****         7.2500  14.5000   2.7500 Du        
   1512 ****         7.2500  14.5000   3.0000 Du        
   1513 ****         7.2500  14.5000   3.2500 Du        
   1514 ****         7.2500  14.5000   3.5000 Du        
   1515 ****         7.2500  14.5000   3.7500 Du        
   1516 ****         7.2500  14.5000   4.0000 Du        
   1517 ****         7.2500  14.5000   4.2500 Du        
   1518 ****         7.2500  14.7500   3.2500 Du        
   1519 ****         7.2500  14.7500   3.5000 Du        
   1520 ****         7.2500  14.7500   3.7500 Du        
   1521 ****         7.2500  14.7500   4.0000 Du        
   1522 ****         7.2500  14.7500   4.2500 Du        
   1523 ****         7.2500  15.0000   4.0000 Du        
   1524 ****         7.2500  15.0000   4.2500 Du        
   1525 ****         7.5000   0.7500  -7.0000 Du        
   1526 ****         7.5000   0.7500  -6.7500 Du        
   1527 ****         7.5000   0.7500  -6.5000 Du        
   1528 ****         7.5000   0.7500  -6.2500 Du        
   1529 ****         7.5000   1.0000  -7.5000 Du        
   1530 ****         7.5000   1.0000  -7.2500 Du        
   1531 ****         7.5000   1.0000  -7.0000 Du        
   1532 ****         7.5000   1.0000  -6.7500 Du        
   1533 ****         7.5000   1.0000  -6.5000 Du        
   1534 ****         7.5000   1.0000  -6.2500 Du        
   1535 ****         7.5000   1.2500  -8.0000 Du        
   1536 ****         7.5000   1.2500  -7.7500 Du        
   1537 ****         7.5000   1.2500  -7.5000 Du        
   1538 ****         7.5000   1.2500  -7.2500 Du        
   1539 ****         7.5000   1.2500  -7.0000 Du        
   1540 ****         7.5000   1.2500  -6.7500 Du        
   1541 ****         7.5000   1.2500  -6.5000 Du        
   1542 ****         7.5000   1.2500  -6.2500 Du        
   1543 ****         7.5000   1.5000  -8.0000 Du        
   1544 ****         7.5000   1.5000  -7.7500 Du        
   1545 ****         7.5000   1.5000  -7.5000 Du        
   1546 ****         7.5000   1.5000  -7.2500 Du        
   1547 ****         7.5000   1.5000  -7.0000 Du        
   1548 ****         7.5000   1.5000  -6.7500 Du        
   1549 ****         7.5000   1.5000  -6.5000 Du        
   1550 ****         7.5000   8.0000   9.5000 Du        
   1551 ****         7.5000   8.0000   9.7500 Du        
   1552 ****         7.5000   8.0000  10.0000 Du        
   1553 ****         7.5000   8.2500   9.5000 Du        
   1554 ****         7.5000   8.2500   9.7500 Du        
   1555 ****         7.5000   8.2500  10.0000 Du        
   1556 ****         7.5000   8.5000   9.2500 Du        
   1557 ****         7.5000   8.5000   9.5000 Du        
   1558 ****         7.5000   8.5000   9.7500 Du        
   1559 ****         7.5000   8.5000  10.0000 Du        
   1560 ****         7.5000   8.7500   9.5000 Du        
   1561 ****         7.5000   8.7500   9.7500 Du        
   1562 ****         7.5000   8.7500  10.0000 Du        
   1563 ****         7.5000   9.0000   9.5000 Du        
   1564 ****         7.5000   9.0000   9.7500 Du        
   1565 ****         7.5000  13.2500   2.7500 Du        
   1566 ****         7.5000  13.5000   2.2500 Du        
   1567 ****         7.5000  13.5000   2.5000 Du        
   1568 ****         7.5000  13.5000   2.7500 Du        
   1569 ****         7.5000  13.5000   3.0000 Du        
   1570 ****         7.5000  13.5000   3.2500 Du        
   1571 ****         7.5000  13.7500   2.2500 Du        
   1572 ****         7.5000  13.7500   2.5000 Du        
   1573 ****         7.5000  13.7500   2.7500 Du        
   1574 ****         7.5000  13.7500   3.0000 Du        
   1575 ****         7.5000  13.7500   3.2500 Du        
   1576 ****         7.5000  13.7500   3.5000 Du        
   1577 ****         7.5000  13.7500   3.7500 Du        
   1578 ****         7.5000  14.0000   2.2500 Du        
   1579 ****         7.5000  14.0000   2.5000 Du        
   1580 ****         7.5000  14.0000   2.7500 Du        
   1581 ****         7.5000  14.0000   3.0000 Du        
   1582 ****         7.5000  14.0000   3.2500 Du        
   1583 ****         7.5000  14.0000   3.5000 Du        
   1584 ****         7.5000  14.0000   3.7500 Du        
   1585 ****         7.5000  14.0000   4.0000 Du        
   1586 ****         7.5000  14.0000   4.2500 Du        
   1587 ****         7.5000  14.2500   2.2500 Du        
   1588 ****         7.5000  14.2500   2.5000 Du        
   1589 ****         7.5000  14.2500   2.7500 Du        
   1590 ****         7.5000  14.2500   3.0000 Du        
   1591 ****         7.5000  14.2500   3.2500 Du        
   1592 ****         7.5000  14.2500   3.5000 Du        
   1593 ****         7.5000  14.2500   3.7500 Du        
   1594 ****         7.5000  14.2500   4.0000 Du        
   1595 ****         7.5000  14.2500   4.2500 Du        
   1596 ****         7.5000  14.5000   2.7500 Du        
   1597 ****         7.5000  14.5000   3.0000 Du        
   1598 ****         7.5000  14.5000   3.2500 Du        
   1599 ****         7.5000  14.5000   3.5000 Du        
   1600 ****         7.5000  14.5000   3.7500 Du        
   1601 ****         7.5000  14.5000   4.0000 Du        
   1602 ****         7.5000  14.5000   4.2500 Du        
   1603 ****         7.5000  14.7500   3.2500 Du        
   1604 ****         7.5000  14.7500   3.5000 Du        
   1605 ****         7.5000  14.7500   3.7500 Du        
   1606 ****         7.5000  14.7500   4.0000 Du        
   1607 ****         7.5000  14.7500   4.2500 Du        
   1608 ****         7.5000  15.0000   3.7500 Du        
   1609 ****         7.5000  15.0000   4.0000 Du        
   1610 ****         7.5000  15.0000   4.2500 Du        
   1611 ****         7.5000  15.2500   4.0000 Du        
   1612 ****         7.5000  15.2500   4.2500 Du        
   1613 ****         7.7500   0.7500  -6.7500 Du        
   1614 ****         7.7500   0.7500  -6.5000 Du        
   1615 ****         7.7500   0.7500  -6.2500 Du        
   1616 ****         7.7500   1.0000  -7.2500 Du        
   1617 ****         7.7500   1.0000  -7.0000 Du        
   1618 ****         7.7500   1.0000  -6.7500 Du        
   1619 ****         7.7500   1.0000  -6.5000 Du        
   1620 ****         7.7500   1.0000  -6.2500 Du        
   1621 ****         7.7500   1.2500  -7.7500 Du        
   1622 ****         7.7500   1.2500  -7.5000 Du        
   1623 ****         7.7500   1.2500  -7.2500 Du        
   1624 ****         7.7500   1.2500  -7.0000 Du        
   1625 ****         7.7500   1.2500  -6.7500 Du        
   1626 ****         7.7500   1.2500  -6.5000 Du        
   1627 ****         7.7500   1.2500  -6.2500 Du        
   1628 ****         7.7500   1.5000  -7.2500 Du        
   1629 ****         7.7500   1.5000  -7.0000 Du        
   1630 ****         7.7500   1.5000  -6.7500 Du        
   1631 ****         7.7500   8.2500   9.5000 Du        
   1632 ****         7.7500   8.2500   9.7500 Du        
   1633 ****         7.7500   8.5000   9.5000 Du        
   1634 ****         7.7500   8.5000   9.7500 Du        
   1635 ****         7.7500   8.7500   9.5000 Du        
   1636 ****         7.7500   8.7500   9.7500 Du        
   1637 ****         7.7500   9.0000   9.5000 Du        
   1638 ****         7.7500   9.0000   9.7500 Du        
   1639 ****         7.7500   9.2500   9.7500 Du        
   1640 ****         7.7500  13.2500   2.5000 Du        
   1641 ****         7.7500  13.2500   2.7500 Du        
   1642 ****         7.7500  13.5000   2.2500 Du        
   1643 ****         7.7500  13.5000   2.5000 Du        
   1644 ****         7.7500  13.5000   2.7500 Du        
   1645 ****         7.7500  13.5000   3.0000 Du        
   1646 ****         7.7500  13.5000   3.2500 Du        
   1647 ****         7.7500  13.7500   2.0000 Du        
   1648 ****         7.7500  13.7500   2.2500 Du        
   1649 ****         7.7500  13.7500   2.5000 Du        
   1650 ****         7.7500  13.7500   2.7500 Du        
   1651 ****         7.7500  13.7500   3.0000 Du        
   1652 ****         7.7500  13.7500   3.2500 Du        
   1653 ****         7.7500  13.7500   3.5000 Du        
   1654 ****         7.7500  13.7500   3.7500 Du        
   1655 ****         7.7500  14.0000   2.0000 Du        
   1656 ****         7.7500  14.0000   2.2500 Du        
   1657 ****         7.7500  14.0000   2.5000 Du        
   1658 ****         7.7500  14.0000   2.7500 Du        
   1659 ****         7.7500  14.0000   3.0000 Du        
   1660 ****         7.7500  14.0000   3.2500 Du        
   1661 ****         7.7500  14.0000   3.5000 Du        
   1662 ****         7.7500  14.0000   3.7500 Du        
   1663 ****         7.7500  14.0000   4.0000 Du        
   1664 ****         7.7500  14.0000   4.2500 Du        
   1665 ****         7.7500  14.2500   2.2500 Du        
   1666 ****         7.7500  14.2500   2.5000 Du        
   1667 ****         7.7500  14.2500   2.7500 Du        
   1668 ****         7.7500  14.2500   3.0000 Du        
   1669 ****         7.7500  14.2500   3.2500 Du        
   1670 ****         7.7500  14.2500   3.5000 Du        
   1671 ****         7.7500  14.2500   3.7500 Du        
   1672 ****         7.7500  14.2500   4.0000 Du        
   1673 ****         7.7500  14.2500   4.2500 Du        
   1674 ****         7.7500  14.5000   2.7500 Du        
   1675 ****         7.7500  14.5000   3.0000 Du        
   1676 ****         7.7500  14.5000   3.2500 Du        
   1677 ****         7.7500  14.5000   3.5000 Du        
   1678 ****         7.7500  14.5000   3.7500 Du        
   1679 ****         7.7500  14.5000   4.0000 Du        
   1680 ****         7.7500  14.5000   4.2500 Du        
   1681 ****         7.7500  14.7500   3.2500 Du        
   1682 ****         7.7500  14.7500   3.5000 Du        
   1683 ****         7.7500  14.7500   3.7500 Du        
   1684 ****         7.7500  14.7500   4.0000 Du        
   1685 ****         7.7500  14.7500   4.2500 Du        
   1686 ****         7.7500  14.7500   4.5000 Du        
   1687 ****         7.7500  15.0000   3.7500 Du        
   1688 ****         7.7500  15.0000   4.0000 Du        
   1689 ****         7.7500  15.0000   4.2500 Du        
   1690 ****         7.7500  15.0000   4.5000 Du        
   1691 ****         7.7500  15.0000   4.7500 Du        
   1692 ****         7.7500  15.2500   4.0000 Du        
   1693 ****         7.7500  15.2500   4.2500 Du        
   1694 ****         7.7500  15.2500   4.5000 Du        
   1695 ****         8.0000   0.7500  -6.5000 Du        
   1696 ****         8.0000   0.7500  -6.2500 Du        
   1697 ****         8.0000   1.0000  -7.0000 Du        
   1698 ****         8.0000   1.0000  -6.7500 Du        
   1699 ****         8.0000   1.0000  -6.5000 Du        
   1700 ****         8.0000   1.0000  -6.2500 Du        
   1701 ****         8.0000   1.2500  -7.2500 Du        
   1702 ****         8.0000   1.2500  -7.0000 Du        
   1703 ****         8.0000   1.2500  -6.7500 Du        
   1704 ****         8.0000   1.2500  -6.5000 Du        
   1705 ****         8.0000   1.2500  -6.2500 Du        
   1706 ****         8.0000   1.5000  -6.7500 Du        
   1707 ****         8.0000   9.0000   9.5000 Du        
   1708 ****         8.0000   9.0000   9.7500 Du        
   1709 ****         8.0000  13.2500   2.2500 Du        
   1710 ****         8.0000  13.2500   2.5000 Du        
   1711 ****         8.0000  13.2500   2.7500 Du        
   1712 ****         8.0000  13.2500   3.0000 Du        
   1713 ****         8.0000  13.5000   2.0000 Du        
   1714 ****         8.0000  13.5000   2.2500 Du        
   1715 ****         8.0000  13.5000   2.5000 Du        
   1716 ****         8.0000  13.5000   2.7500 Du        
   1717 ****         8.0000  13.5000   3.0000 Du        
   1718 ****         8.0000  13.5000   3.2500 Du        
   1719 ****         8.0000  13.7500   2.0000 Du        
   1720 ****         8.0000  13.7500   2.2500 Du        
   1721 ****         8.0000  13.7500   2.5000 Du        
   1722 ****         8.0000  13.7500   2.7500 Du        
   1723 ****         8.0000  13.7500   3.0000 Du        
   1724 ****         8.0000  13.7500   3.2500 Du        
   1725 ****         8.0000  13.7500   3.5000 Du        
   1726 ****         8.0000  13.7500   3.7500 Du        
   1727 ****         8.0000  14.0000   2.0000 Du        
   1728 ****         8.0000  14.0000   2.2500 Du        
   1729 ****         8.0000  14.0000   2.5000 Du        
   1730 ****         8.0000  14.0000   2.7500 Du        
   1731 ****         8.0000  14.0000   3.0000 Du        
   1732 ****         8.0000  14.0000   3.2500 Du        
   1733 ****         8.0000  14.0000   3.5000 Du        
   1734 ****         8.0000  14.0000   3.7500 Du        
   1735 ****         8.0000  14.0000   4.0000 Du        
   1736 ****         8.0000  14.0000   4.2500 Du        
   1737 ****         8.0000  14.2500   2.2500 Du        
   1738 ****         8.0000  14.2500   2.5000 Du        
   1739 ****         8.0000  14.2500   2.7500 Du        
   1740 ****         8.0000  14.2500   3.0000 Du        
   1741 ****         8.0000  14.2500   3.2500 Du        
   1742 ****         8.0000  14.2500   3.5000 Du        
   1743 ****         8.0000  14.2500   3.7500 Du        
   1744 ****         8.0000  14.2500   4.0000 Du        
   1745 ****         8.0000  14.2500   4.2500 Du        
   1746 ****         8.0000  14.5000   2.7500 Du        
   1747 ****         8.0000  14.5000   3.0000 Du        
   1748 ****         8.0000  14.5000   3.2500 Du        
   1749 ****         8.0000  14.5000   3.5000 Du        
   1750 ****         8.0000  14.5000   3.7500 Du        
   1751 ****         8.0000  14.5000   4.0000 Du        
   1752 ****         8.0000  14.5000   4.2500 Du        
   1753 ****         8.0000  14.5000   4.5000 Du        
   1754 ****         8.0000  14.5000   4.7500 Du        
   1755 ****         8.0000  14.7500   3.2500 Du        
   1756 ****         8.0000  14.7500   3.5000 Du        
   1757 ****         8.0000  14.7500   3.7500 Du        
   1758 ****         8.0000  14.7500   4.0000 Du        
   1759 ****         8.0000  14.7500   4.2500 Du        
   1760 ****         8.0000  14.7500   4.5000 Du        
   1761 ****         8.0000  14.7500   4.7500 Du        
   1762 ****         8.0000  15.0000   3.7500 Du        
   1763 ****         8.0000  15.0000   4.0000 Du        
   1764 ****         8.0000  15.0000   4.2500 Du        
   1765 ****         8.0000  15.0000   4.5000 Du        
   1766 ****         8.0000  15.0000   4.7500 Du        
   1767 ****         8.0000  15.2500   4.0000 Du        
   1768 ****         8.0000  15.2500   4.2500 Du        
   1769 ****         8.0000  15.2500   4.5000 Du        
   1770 ****         8.0000  15.2500   4.7500 Du        
   1771 ****         8.2500   1.0000  -6.5000 Du        
   1772 ****         8.2500   1.0000  -6.2500 Du        
   1773 ****         8.2500   1.2500  -6.7500 Du        
   1774 ****         8.2500   1.2500  -6.5000 Du        
   1775 ****         8.2500   1.2500  -6.2500 Du        
   1776 ****         8.2500  13.2500   2.2500 Du        
   1777 ****         8.2500  13.2500   2.5000 Du        
   1778 ****         8.2500  13.2500   2.7500 Du        
   1779 ****         8.2500  13.2500   3.0000 Du        
   1780 ****         8.2500  13.5000   2.0000 Du        
   1781 ****         8.2500  13.5000   2.2500 Du        
   1782 ****         8.2500  13.5000   2.5000 Du        
   1783 ****         8.2500  13.5000   2.7500 Du        
   1784 ****         8.2500  13.5000   3.0000 Du        
   1785 ****         8.2500  13.5000   3.2500 Du        
   1786 ****         8.2500  13.7500   2.0000 Du        
   1787 ****         8.2500  13.7500   2.2500 Du        
   1788 ****         8.2500  13.7500   2.5000 Du        
   1789 ****         8.2500  13.7500   2.7500 Du        
   1790 ****         8.2500  13.7500   3.0000 Du        
   1791 ****         8.2500  13.7500   3.2500 Du        
   1792 ****         8.2500  13.7500   3.5000 Du        
   1793 ****         8.2500  13.7500   3.7500 Du        
   1794 ****         8.2500  14.0000   2.0000 Du        
   1795 ****         8.2500  14.0000   2.2500 Du        
   1796 ****         8.2500  14.0000   2.5000 Du        
   1797 ****         8.2500  14.0000   2.7500 Du        
   1798 ****         8.2500  14.0000   3.0000 Du        
   1799 ****         8.2500  14.0000   3.2500 Du        
   1800 ****         8.2500  14.0000   3.5000 Du        
   1801 ****         8.2500  14.0000   3.7500 Du        
   1802 ****         8.2500  14.0000   4.0000 Du        
   1803 ****         8.2500  14.0000   4.2500 Du        
   1804 ****         8.2500  14.2500   2.2500 Du        
   1805 ****         8.2500  14.2500   2.5000 Du        
   1806 ****         8.2500  14.2500   2.7500 Du        
   1807 ****         8.2500  14.2500   3.0000 Du        
   1808 ****         8.2500  14.2500   3.2500 Du        
   1809 ****         8.2500  14.2500   3.5000 Du        
   1810 ****         8.2500  14.2500   3.7500 Du        
   1811 ****         8.2500  14.2500   4.0000 Du        
   1812 ****         8.2500  14.2500   4.2500 Du        
   1813 ****         8.2500  14.2500   4.5000 Du        
   1814 ****         8.2500  14.5000   3.0000 Du        
   1815 ****         8.2500  14.5000   3.2500 Du        
   1816 ****         8.2500  14.5000   3.5000 Du        
   1817 ****         8.2500  14.5000   3.7500 Du        
   1818 ****         8.2500  14.5000   4.0000 Du        
   1819 ****         8.2500  14.5000   4.2500 Du        
   1820 ****         8.2500  14.5000   4.5000 Du        
   1821 ****         8.2500  14.5000   4.7500 Du        
   1822 ****         8.2500  14.7500   3.5000 Du        
   1823 ****         8.2500  14.7500   3.7500 Du        
   1824 ****         8.2500  14.7500   4.0000 Du        
   1825 ****         8.2500  14.7500   4.2500 Du        
   1826 ****         8.2500  14.7500   4.5000 Du        
   1827 ****         8.2500  14.7500   4.7500 Du        
   1828 ****         8.2500  15.0000   3.7500 Du        
   1829 ****         8.2500  15.0000   4.0000 Du        
   1830 ****         8.2500  15.0000   4.2500 Du        
   1831 ****         8.2500  15.0000   4.5000 Du        
   1832 ****         8.2500  15.0000   4.7500 Du        
   1833 ****         8.2500  15.2500   4.0000 Du        
   1834 ****         8.2500  15.2500   4.2500 Du        
   1835 ****         8.2500  15.2500   4.5000 Du        
   1836 ****         8.2500  15.2500   4.7500 Du        
   1837 ****         8.5000   1.2500  -6.5000 Du        
   1838 ****         8.5000   1.2500  -6.2500 Du        
   1839 ****         8.5000  13.2500   2.2500 Du        
   1840 ****         8.5000  13.2500   2.5000 Du        
   1841 ****         8.5000  13.2500   2.7500 Du        
   1842 ****         8.5000  13.2500   3.0000 Du        
   1843 ****         8.5000  13.5000   2.0000 Du        
   1844 ****         8.5000  13.5000   2.2500 Du        
   1845 ****         8.5000  13.5000   2.5000 Du        
   1846 ****         8.5000  13.5000   2.7500 Du        
   1847 ****         8.5000  13.5000   3.0000 Du        
   1848 ****         8.5000  13.5000   3.2500 Du        
   1849 ****         8.5000  13.5000   3.5000 Du        
   1850 ****         8.5000  13.7500   1.7500 Du        
   1851 ****         8.5000  13.7500   2.0000 Du        
   1852 ****         8.5000  13.7500   2.2500 Du        
   1853 ****         8.5000  13.7500   2.5000 Du        
   1854 ****         8.5000  13.7500   2.7500 Du        
   1855 ****         8.5000  13.7500   3.0000 Du        
   1856 ****         8.5000  13.7500   3.2500 Du        
   1857 ****         8.5000  13.7500   3.5000 Du        
   1858 ****         8.5000  13.7500   3.7500 Du        
   1859 ****         8.5000  13.7500   4.0000 Du        
   1860 ****         8.5000  14.0000   2.0000 Du        
   1861 ****         8.5000  14.0000   2.2500 Du        
   1862 ****         8.5000  14.0000   2.5000 Du        
   1863 ****         8.5000  14.0000   2.7500 Du        
   1864 ****         8.5000  14.0000   3.0000 Du        
   1865 ****         8.5000  14.0000   3.2500 Du        
   1866 ****         8.5000  14.0000   3.5000 Du        
   1867 ****         8.5000  14.0000   3.7500 Du        
   1868 ****         8.5000  14.0000   4.0000 Du        
   1869 ****         8.5000  14.0000   4.2500 Du        
   1870 ****         8.5000  14.0000   4.5000 Du        
   1871 ****         8.5000  14.2500   2.7500 Du        
   1872 ****         8.5000  14.2500   3.0000 Du        
   1873 ****         8.5000  14.2500   3.2500 Du        
   1874 ****         8.5000  14.2500   3.5000 Du        
   1875 ****         8.5000  14.2500   3.7500 Du        
   1876 ****         8.5000  14.2500   4.0000 Du        
   1877 ****         8.5000  14.2500   4.2500 Du        
   1878 ****         8.5000  14.2500   4.5000 Du        
   1879 ****         8.5000  14.2500   4.7500 Du        
   1880 ****         8.5000  14.5000   3.5000 Du        
   1881 ****         8.5000  14.5000   3.7500 Du        
   1882 ****         8.5000  14.5000   4.0000 Du        
   1883 ****         8.5000  14.5000   4.2500 Du        
   1884 ****         8.5000  14.5000   4.5000 Du        
   1885 ****         8.5000  14.5000   4.7500 Du        
   1886 ****         8.5000  14.5000   5.0000 Du        
   1887 ****         8.5000  14.7500   3.7500 Du        
   1888 ****         8.5000  14.7500   4.0000 Du        
   1889 ****         8.5000  14.7500   4.2500 Du        
   1890 ****         8.5000  14.7500   4.5000 Du        
   1891 ****         8.5000  14.7500   4.7500 Du        
   1892 ****         8.5000  14.7500   5.0000 Du        
   1893 ****         8.5000  15.0000   4.0000 Du        
   1894 ****         8.5000  15.0000   4.2500 Du        
   1895 ****         8.5000  15.0000   4.5000 Du        
   1896 ****         8.5000  15.0000   4.7500 Du        
   1897 ****         8.5000  15.0000   5.0000 Du        
   1898 ****         8.5000  15.2500   4.2500 Du        
   1899 ****         8.5000  15.2500   4.5000 Du        
   1900 ****         8.5000  15.2500   4.7500 Du        
   1901 ****         8.7500  13.2500   2.0000 Du        
   1902 ****         8.7500  13.2500   2.2500 Du        
   1903 ****         8.7500  13.2500   2.5000 Du        
   1904 ****         8.7500  13.2500   2.7500 Du        
   1905 ****         8.7500  13.2500   3.0000 Du        
   1906 ****         8.7500  13.2500   3.2500 Du        
   1907 ****         8.7500  13.5000   1.7500 Du        
   1908 ****         8.7500  13.5000   2.0000 Du        
   1909 ****         8.7500  13.5000   2.2500 Du        
   1910 ****         8.7500  13.5000   2.5000 Du        
   1911 ****         8.7500  13.5000   2.7500 Du        
   1912 ****         8.7500  13.5000   3.0000 Du        
   1913 ****         8.7500  13.5000   3.2500 Du        
   1914 ****         8.7500  13.5000   3.5000 Du        
   1915 ****         8.7500  13.5000   3.7500 Du        
   1916 ****         8.7500  13.7500   1.7500 Du        
   1917 ****         8.7500  13.7500   2.0000 Du        
   1918 ****         8.7500  13.7500   2.2500 Du        
   1919 ****         8.7500  13.7500   2.5000 Du        
   1920 ****         8.7500  13.7500   2.7500 Du        
   1921 ****         8.7500  13.7500   3.0000 Du        
   1922 ****         8.7500  13.7500   3.2500 Du        
   1923 ****         8.7500  13.7500   3.5000 Du        
   1924 ****         8.7500  13.7500   3.7500 Du        
   1925 ****         8.7500  13.7500   4.0000 Du        
   1926 ****         8.7500  13.7500   4.2500 Du        
   1927 ****         8.7500  14.0000   2.0000 Du        
   1928 ****         8.7500  14.0000   2.2500 Du        
   1929 ****         8.7500  14.0000   2.5000 Du        
   1930 ****         8.7500  14.0000   2.7500 Du        
   1931 ****         8.7500  14.0000   3.0000 Du        
   1932 ****         8.7500  14.0000   3.2500 Du        
   1933 ****         8.7500  14.0000   3.5000 Du        
   1934 ****         8.7500  14.0000   3.7500 Du        
   1935 ****         8.7500  14.0000   4.0000 Du        
   1936 ****         8.7500  14.0000   4.2500 Du        
   1937 ****         8.7500  14.0000   4.5000 Du        
   1938 ****         8.7500  14.0000   4.7500 Du        
   1939 ****         8.7500  14.2500   3.7500 Du        
   1940 ****         8.7500  14.2500   4.0000 Du        
   1941 ****         8.7500  14.2500   4.2500 Du        
   1942 ****         8.7500  14.2500   4.5000 Du        
   1943 ****         8.7500  14.2500   4.7500 Du        
   1944 ****         8.7500  14.2500   5.0000 Du        
   1945 ****         8.7500  14.5000   4.0000 Du        
   1946 ****         8.7500  14.5000   4.2500 Du        
   1947 ****         8.7500  14.5000   4.5000 Du        
   1948 ****         8.7500  14.5000   4.7500 Du        
   1949 ****         8.7500  14.5000   5.0000 Du        
   1950 ****         8.7500  14.7500   4.2500 Du        
   1951 ****         8.7500  14.7500   4.5000 Du        
   1952 ****         8.7500  14.7500   4.7500 Du        
   1953 ****         8.7500  14.7500   5.0000 Du        
   1954 ****         8.7500  15.0000   4.2500 Du        
   1955 ****         8.7500  15.0000   4.5000 Du        
   1956 ****         8.7500  15.0000   4.7500 Du        
   1957 ****         8.7500  15.0000   5.0000 Du        
   1958 ****         8.7500  15.0000   5.2500 Du        
   1959 ****         8.7500  15.2500   4.7500 Du        
   1960 ****         8.7500  15.2500   5.0000 Du        
   1961 ****         9.0000  -1.0000 -14.0000 Du        
   1962 ****         9.0000  13.2500   2.2500 Du        
   1963 ****         9.0000  13.2500   2.5000 Du        
   1964 ****         9.0000  13.2500   2.7500 Du        
   1965 ****         9.0000  13.2500   3.0000 Du        
   1966 ****         9.0000  13.2500   3.2500 Du        
   1967 ****         9.0000  13.5000   2.0000 Du        
   1968 ****         9.0000  13.5000   2.2500 Du        
   1969 ****         9.0000  13.5000   2.5000 Du        
   1970 ****         9.0000  13.5000   2.7500 Du        
   1971 ****         9.0000  13.5000   3.0000 Du        
   1972 ****         9.0000  13.5000   3.2500 Du        
   1973 ****         9.0000  13.5000   3.5000 Du        
   1974 ****         9.0000  13.5000   3.7500 Du        
   1975 ****         9.0000  13.5000   4.0000 Du        
   1976 ****         9.0000  13.7500   2.0000 Du        
   1977 ****         9.0000  13.7500   2.2500 Du        
   1978 ****         9.0000  13.7500   2.5000 Du        
   1979 ****         9.0000  13.7500   2.7500 Du        
   1980 ****         9.0000  13.7500   3.0000 Du        
   1981 ****         9.0000  13.7500   3.2500 Du        
   1982 ****         9.0000  13.7500   3.5000 Du        
   1983 ****         9.0000  13.7500   3.7500 Du        
   1984 ****         9.0000  13.7500   4.0000 Du        
   1985 ****         9.0000  13.7500   4.2500 Du        
   1986 ****         9.0000  13.7500   4.5000 Du        
   1987 ****         9.0000  13.7500   4.7500 Du        
   1988 ****         9.0000  14.0000   3.5000 Du        
   1989 ****         9.0000  14.0000   3.7500 Du        
   1990 ****         9.0000  14.0000   4.0000 Du        
   1991 ****         9.0000  14.0000   4.2500 Du        
   1992 ****         9.0000  14.0000   4.5000 Du        
   1993 ****         9.0000  14.0000   4.7500 Du        
   1994 ****         9.0000  14.0000   5.0000 Du        
   1995 ****         9.0000  14.2500   4.0000 Du        
   1996 ****         9.0000  14.2500   4.2500 Du        
   1997 ****         9.0000  14.2500   4.5000 Du        
   1998 ****         9.0000  14.2500   4.7500 Du        
   1999 ****         9.0000  14.2500   5.0000 Du        
   2000 ****         9.0000  14.5000   4.2500 Du        
   2001 ****         9.0000  14.5000   4.7500 Du        
   2002 ****         9.0000  14.5000   5.0000 Du        
   2003 ****         9.0000  14.7500   4.7500 Du        
   2004 ****         9.0000  14.7500   5.0000 Du        
   2005 ****         9.0000  15.0000   4.7500 Du        
   2006 ****         9.0000  15.0000   5.0000 Du        
   2007 ****         9.0000  15.0000   5.2500 Du        
   2008 ****         9.0000  15.2500   4.7500 Du        
   2009 ****         9.0000  15.2500   5.0000 Du        
   2010 ****         9.2500  -1.2500 -14.0000 Du        
   2011 ****         9.2500  -1.0000 -14.0000 Du        
   2012 ****         9.2500  -1.0000 -13.7500 Du        
   2013 ****         9.2500  -0.7500 -14.0000 Du        
   2014 ****         9.2500  -0.7500 -13.7500 Du        
   2015 ****         9.2500  -0.5000 -14.0000 Du        
   2016 ****         9.2500  13.2500   2.7500 Du        
   2017 ****         9.2500  13.2500   3.0000 Du        
   2018 ****         9.2500  13.2500   3.2500 Du        
   2019 ****         9.2500  13.2500   3.5000 Du        
   2020 ****         9.2500  13.2500   3.7500 Du        
   2021 ****         9.2500  13.5000   2.5000 Du        
   2022 ****         9.2500  13.5000   2.7500 Du        
   2023 ****         9.2500  13.5000   3.0000 Du        
   2024 ****         9.2500  13.5000   3.2500 Du        
   2025 ****         9.2500  13.5000   3.5000 Du        
   2026 ****         9.2500  13.5000   3.7500 Du        
   2027 ****         9.2500  13.5000   4.0000 Du        
   2028 ****         9.2500  13.5000   4.2500 Du        
   2029 ****         9.2500  13.7500   3.5000 Du        
   2030 ****         9.2500  13.7500   3.7500 Du        
   2031 ****         9.2500  13.7500   4.0000 Du        
   2032 ****         9.2500  13.7500   4.2500 Du        
   2033 ****         9.2500  13.7500   4.5000 Du        
   2034 ****         9.2500  13.7500   4.7500 Du        
   2035 ****         9.2500  13.7500   5.0000 Du        
   2036 ****         9.2500  14.0000   4.0000 Du        
   2037 ****         9.2500  14.0000   4.2500 Du        
   2038 ****         9.2500  14.0000   4.5000 Du        
   2039 ****         9.2500  14.0000   4.7500 Du        
   2040 ****         9.2500  14.0000   5.0000 Du        
   2041 ****         9.2500  14.0000   5.2500 Du        
   2042 ****         9.2500  14.2500   4.2500 Du        
   2043 ****         9.2500  14.2500   4.5000 Du        
   2044 ****         9.2500  14.2500   4.7500 Du        
   2045 ****         9.2500  14.2500   5.0000 Du        
   2046 ****         9.2500  14.2500   5.2500 Du        
   2047 ****         9.2500  14.5000   5.0000 Du        
   2048 ****         9.2500  14.7500   5.0000 Du        
   2049 ****         9.2500  15.0000   5.0000 Du        
   2050 ****         9.2500  15.0000   5.2500 Du        
   2051 ****         9.2500  15.2500   5.0000 Du        
   2052 ****         9.5000 -12.2500  -8.5000 Du        
   2053 ****         9.5000  -1.5000 -14.2500 Du        
   2054 ****         9.5000  -1.5000 -14.0000 Du        
   2055 ****         9.5000  -1.2500 -14.2500 Du        
   2056 ****         9.5000  -1.2500 -14.0000 Du        
   2057 ****         9.5000  -1.2500 -13.7500 Du        
   2058 ****         9.5000  -1.0000 -14.5000 Du        
   2059 ****         9.5000  -1.0000 -14.2500 Du        
   2060 ****         9.5000  -1.0000 -14.0000 Du        
   2061 ****         9.5000  -1.0000 -13.7500 Du        
   2062 ****         9.5000  -1.0000   5.5000 Du        
   2063 ****         9.5000  -1.0000   5.7500 Du        
   2064 ****         9.5000  -0.7500 -14.5000 Du        
   2065 ****         9.5000  -0.7500 -14.2500 Du        
   2066 ****         9.5000  -0.7500 -14.0000 Du        
   2067 ****         9.5000  -0.7500 -13.7500 Du        
   2068 ****         9.5000  -0.7500 -13.5000 Du        
   2069 ****         9.5000  -0.7500   5.2500 Du        
   2070 ****         9.5000  -0.7500   5.5000 Du        
   2071 ****         9.5000  -0.7500   5.7500 Du        
   2072 ****         9.5000  -0.5000 -14.5000 Du        
   2073 ****         9.5000  -0.5000 -14.2500 Du        
   2074 ****         9.5000  -0.5000 -14.0000 Du        
   2075 ****         9.5000  -0.5000 -13.7500 Du        
   2076 ****         9.5000  -0.5000 -13.5000 Du        
   2077 ****         9.5000  -0.5000   5.2500 Du        
   2078 ****         9.5000  -0.5000   5.5000 Du        
   2079 ****         9.5000  -0.5000   5.7500 Du        
   2080 ****         9.5000  -0.2500 -14.2500 Du        
   2081 ****         9.5000  -0.2500 -14.0000 Du        
   2082 ****         9.5000  -0.2500 -13.7500 Du        
   2083 ****         9.5000  -0.2500 -13.5000 Du        
   2084 ****         9.5000  13.2500   3.2500 Du        
   2085 ****         9.5000  13.2500   3.7500 Du        
   2086 ****         9.5000  13.2500   4.0000 Du        
   2087 ****         9.5000  13.2500   4.2500 Du        
   2088 ****         9.5000  13.5000   3.7500 Du        
   2089 ****         9.5000  13.5000   4.0000 Du        
   2090 ****         9.5000  13.5000   4.2500 Du        
   2091 ****         9.5000  13.5000   4.5000 Du        
   2092 ****         9.5000  13.5000   4.7500 Du        
   2093 ****         9.5000  13.5000   5.0000 Du        
   2094 ****         9.5000  13.7500   4.0000 Du        
   2095 ****         9.5000  13.7500   4.2500 Du        
   2096 ****         9.5000  13.7500   4.5000 Du        
   2097 ****         9.5000  13.7500   4.7500 Du        
   2098 ****         9.5000  13.7500   5.0000 Du        
   2099 ****         9.5000  13.7500   5.2500 Du        
   2100 ****         9.5000  14.0000   4.2500 Du        
   2101 ****         9.5000  14.0000   4.5000 Du        
   2102 ****         9.5000  14.0000   4.7500 Du        
   2103 ****         9.5000  14.0000   5.0000 Du        
   2104 ****         9.5000  14.0000   5.2500 Du        
   2105 ****         9.5000  14.2500   4.7500 Du        
   2106 ****         9.5000  14.2500   5.0000 Du        
   2107 ****         9.5000  14.2500   5.2500 Du        
   2108 ****         9.5000  14.5000   5.2500 Du        
   2109 ****         9.5000  14.7500   5.0000 Du        
   2110 ****         9.5000  14.7500   5.2500 Du        
   2111 ****         9.5000  15.0000   5.2500 Du        
   2112 ****         9.5000  15.2500   5.2500 Du        
   2113 ****         9.7500 -12.2500  -8.7500 Du        
   2114 ****         9.7500 -12.2500  -8.5000 Du        
   2115 ****         9.7500 -12.2500  -8.2500 Du        
   2116 ****         9.7500 -12.0000  -8.7500 Du        
   2117 ****         9.7500 -12.0000  -8.5000 Du        
   2118 ****         9.7500 -12.0000  -8.2500 Du        
   2119 ****         9.7500 -11.7500  -8.5000 Du        
   2120 ****         9.7500  -1.7500   5.7500 Du        
   2121 ****         9.7500  -1.7500   6.0000 Du        
   2122 ****         9.7500  -1.5000 -14.2500 Du        
   2123 ****         9.7500  -1.5000   5.5000 Du        
   2124 ****         9.7500  -1.5000   5.7500 Du        
   2125 ****         9.7500  -1.5000   6.0000 Du        
   2126 ****         9.7500  -1.2500 -14.2500 Du        
   2127 ****         9.7500  -1.2500 -14.0000 Du        
   2128 ****         9.7500  -1.2500   5.2500 Du        
   2129 ****         9.7500  -1.2500   5.5000 Du        
   2130 ****         9.7500  -1.2500   5.7500 Du        
   2131 ****         9.7500  -1.2500   6.0000 Du        
   2132 ****         9.7500  -1.2500   6.2500 Du        
   2133 ****         9.7500  -1.0000 -14.2500 Du        
   2134 ****         9.7500  -1.0000 -14.0000 Du        
   2135 ****         9.7500  -1.0000 -13.7500 Du        
   2136 ****         9.7500  -1.0000   5.0000 Du        
   2137 ****         9.7500  -1.0000   5.2500 Du        
   2138 ****         9.7500  -1.0000   5.5000 Du        
   2139 ****         9.7500  -1.0000   5.7500 Du        
   2140 ****         9.7500  -1.0000   6.0000 Du        
   2141 ****         9.7500  -1.0000   6.2500 Du        
   2142 ****         9.7500  -0.7500 -14.2500 Du        
   2143 ****         9.7500  -0.7500 -14.0000 Du        
   2144 ****         9.7500  -0.7500 -13.7500 Du        
   2145 ****         9.7500  -0.7500   5.0000 Du        
   2146 ****         9.7500  -0.7500   5.2500 Du        
   2147 ****         9.7500  -0.7500   5.5000 Du        
   2148 ****         9.7500  -0.7500   5.7500 Du        
   2149 ****         9.7500  -0.7500   6.0000 Du        
   2150 ****         9.7500  -0.7500   6.2500 Du        
   2151 ****         9.7500  -0.5000 -14.2500 Du        
   2152 ****         9.7500  -0.5000 -14.0000 Du        
   2153 ****         9.7500  -0.5000 -13.7500 Du        
   2154 ****         9.7500  -0.5000 -13.5000 Du        
   2155 ****         9.7500  -0.5000   5.0000 Du        
   2156 ****         9.7500  -0.5000   5.2500 Du        
   2157 ****         9.7500  -0.5000   5.5000 Du        
   2158 ****         9.7500  -0.5000   5.7500 Du        
   2159 ****         9.7500  -0.5000   6.0000 Du        
   2160 ****         9.7500  -0.5000   6.2500 Du        
   2161 ****         9.7500  -0.2500 -14.2500 Du        
   2162 ****         9.7500  -0.2500 -14.0000 Du        
   2163 ****         9.7500  -0.2500 -13.7500 Du        
   2164 ****         9.7500  -0.2500 -13.5000 Du        
   2165 ****         9.7500  -0.2500   5.5000 Du        
   2166 ****         9.7500  -0.2500   5.7500 Du        
   2167 ****         9.7500  -0.2500   6.0000 Du        
   2168 ****         9.7500  -0.2500   6.2500 Du        
   2169 ****         9.7500   0.0000 -14.0000 Du        
   2170 ****         9.7500   0.0000 -13.7500 Du        
   2171 ****         9.7500   0.0000 -13.5000 Du        
   2172 ****         9.7500   0.0000 -13.2500 Du        
   2173 ****         9.7500  11.0000   8.2500 Du        
   2174 ****         9.7500  11.2500   8.0000 Du        
   2175 ****         9.7500  11.2500   8.2500 Du        
   2176 ****         9.7500  13.0000   4.2500 Du        
   2177 ****         9.7500  13.2500   3.7500 Du        
   2178 ****         9.7500  13.2500   4.0000 Du        
   2179 ****         9.7500  13.2500   4.2500 Du        
   2180 ****         9.7500  13.2500   4.5000 Du        
   2181 ****         9.7500  13.2500   4.7500 Du        
   2182 ****         9.7500  13.2500   5.0000 Du        
   2183 ****         9.7500  13.2500   5.2500 Du        
   2184 ****         9.7500  13.2500   5.5000 Du        
   2185 ****         9.7500  13.5000   3.7500 Du        
   2186 ****         9.7500  13.5000   4.0000 Du        
   2187 ****         9.7500  13.5000   4.2500 Du        
   2188 ****         9.7500  13.5000   4.5000 Du        
   2189 ****         9.7500  13.5000   4.7500 Du        
   2190 ****         9.7500  13.5000   5.0000 Du        
   2191 ****         9.7500  13.5000   5.2500 Du        
   2192 ****         9.7500  13.7500   4.0000 Du        
   2193 ****         9.7500  13.7500   4.2500 Du        
   2194 ****         9.7500  13.7500   4.5000 Du        
   2195 ****         9.7500  13.7500   4.7500 Du        
   2196 ****         9.7500  13.7500   5.0000 Du        
   2197 ****         9.7500  13.7500   5.2500 Du        
   2198 ****         9.7500  13.7500   5.5000 Du        
   2199 ****         9.7500  14.0000   4.2500 Du        
   2200 ****         9.7500  14.0000   4.5000 Du        
   2201 ****         9.7500  14.0000   4.7500 Du        
   2202 ****         9.7500  14.0000   5.0000 Du        
   2203 ****         9.7500  14.0000   5.2500 Du        
   2204 ****         9.7500  14.0000   5.5000 Du        
   2205 ****         9.7500  14.2500   4.7500 Du        
   2206 ****         9.7500  14.2500   5.0000 Du        
   2207 ****         9.7500  14.2500   5.2500 Du        
   2208 ****         9.7500  14.2500   5.5000 Du        
   2209 ****         9.7500  14.2500   5.7500 Du        
   2210 ****         9.7500  14.5000   5.0000 Du        
   2211 ****         9.7500  14.5000   5.2500 Du        
   2212 ****         9.7500  14.7500   5.0000 Du        
   2213 ****         9.7500  14.7500   5.2500 Du        
   2214 ****         9.7500  15.0000   5.2500 Du        
   2215 ****        10.0000 -12.2500  -8.2500 Du        
   2216 ****        10.0000 -12.0000  -8.7500 Du        
   2217 ****        10.0000 -12.0000  -8.5000 Du        
   2218 ****        10.0000 -12.0000  -8.2500 Du        
   2219 ****        10.0000 -12.0000  -8.0000 Du        
   2220 ****        10.0000 -11.7500  -8.5000 Du        
   2221 ****        10.0000 -11.7500  -8.2500 Du        
   2222 ****        10.0000 -11.7500  -8.0000 Du        
   2223 ****        10.0000  -2.0000   5.2500 Du        
   2224 ****        10.0000  -1.7500   5.0000 Du        
   2225 ****        10.0000  -1.7500   5.2500 Du        
   2226 ****        10.0000  -1.7500   5.5000 Du        
   2227 ****        10.0000  -1.7500   5.7500 Du        
   2228 ****        10.0000  -1.7500   6.0000 Du        
   2229 ****        10.0000  -1.5000   5.0000 Du        
   2230 ****        10.0000  -1.5000   5.2500 Du        
   2231 ****        10.0000  -1.5000   5.5000 Du        
   2232 ****        10.0000  -1.5000   5.7500 Du        
   2233 ****        10.0000  -1.5000   6.0000 Du        
   2234 ****        10.0000  -1.5000   6.2500 Du        
   2235 ****        10.0000  -1.2500   4.7500 Du        
   2236 ****        10.0000  -1.2500   5.0000 Du        
   2237 ****        10.0000  -1.2500   5.2500 Du        
   2238 ****        10.0000  -1.2500   5.5000 Du        
   2239 ****        10.0000  -1.2500   5.7500 Du        
   2240 ****        10.0000  -1.2500   6.0000 Du        
   2241 ****        10.0000  -1.2500   6.2500 Du        
   2242 ****        10.0000  -1.0000   4.7500 Du        
   2243 ****        10.0000  -1.0000   5.0000 Du        
   2244 ****        10.0000  -1.0000   5.2500 Du        
   2245 ****        10.0000  -1.0000   5.5000 Du        
   2246 ****        10.0000  -1.0000   5.7500 Du        
   2247 ****        10.0000  -1.0000   6.0000 Du        
   2248 ****        10.0000  -1.0000   6.2500 Du        
   2249 ****        10.0000  -1.0000   6.5000 Du        
   2250 ****        10.0000  -0.7500   4.7500 Du        
   2251 ****        10.0000  -0.7500   5.0000 Du        
   2252 ****        10.0000  -0.7500   5.2500 Du        
   2253 ****        10.0000  -0.7500   5.5000 Du        
   2254 ****        10.0000  -0.7500   5.7500 Du        
   2255 ****        10.0000  -0.7500   6.0000 Du        
   2256 ****        10.0000  -0.7500   6.2500 Du        
   2257 ****        10.0000  -0.7500   6.5000 Du        
   2258 ****        10.0000  -0.5000   5.0000 Du        
   2259 ****        10.0000  -0.5000   5.2500 Du        
   2260 ****        10.0000  -0.5000   5.5000 Du        
   2261 ****        10.0000  -0.5000   5.7500 Du        
   2262 ****        10.0000  -0.5000   6.0000 Du        
   2263 ****        10.0000  -0.5000   6.2500 Du        
   2264 ****        10.0000  -0.5000   6.5000 Du        
   2265 ****        10.0000  -0.5000   6.7500 Du        
   2266 ****        10.0000  -0.2500 -13.7500 Du        
   2267 ****        10.0000  -0.2500   5.5000 Du        
   2268 ****        10.0000  -0.2500   5.7500 Du        
   2269 ****        10.0000  -0.2500   6.0000 Du        
   2270 ****        10.0000  -0.2500   6.2500 Du        
   2271 ****        10.0000  -0.2500   6.5000 Du        
   2272 ****        10.0000   0.0000 -13.7500 Du        
   2273 ****        10.0000   0.0000 -13.5000 Du        
   2274 ****        10.0000   0.0000 -13.2500 Du        
   2275 ****        10.0000   0.2500 -13.7500 Du        
   2276 ****        10.0000   0.2500 -13.5000 Du        
   2277 ****        10.0000   0.2500 -13.2500 Du        
   2278 ****        10.0000  10.7500   7.7500 Du        
   2279 ****        10.0000  10.7500   8.0000 Du        
   2280 ****        10.0000  10.7500   8.2500 Du        
   2281 ****        10.0000  11.0000   7.7500 Du        
   2282 ****        10.0000  11.0000   8.0000 Du        
   2283 ****        10.0000  11.0000   8.2500 Du        
   2284 ****        10.0000  11.0000   8.5000 Du        
   2285 ****        10.0000  11.2500   7.2500 Du        
   2286 ****        10.0000  11.2500   7.5000 Du        
   2287 ****        10.0000  11.2500   7.7500 Du        
   2288 ****        10.0000  11.2500   8.0000 Du        
   2289 ****        10.0000  11.2500   8.2500 Du        
   2290 ****        10.0000  11.2500   8.5000 Du        
   2291 ****        10.0000  11.5000   7.0000 Du        
   2292 ****        10.0000  11.5000   7.2500 Du        
   2293 ****        10.0000  11.5000   7.5000 Du        
   2294 ****        10.0000  11.5000   7.7500 Du        
   2295 ****        10.0000  11.5000   8.0000 Du        
   2296 ****        10.0000  11.5000   8.2500 Du        
   2297 ****        10.0000  11.7500   7.0000 Du        
   2298 ****        10.0000  11.7500   7.2500 Du        
   2299 ****        10.0000  11.7500   7.5000 Du        
   2300 ****        10.0000  11.7500   7.7500 Du        
   2301 ****        10.0000  11.7500   8.0000 Du        
   2302 ****        10.0000  12.0000   6.7500 Du        
   2303 ****        10.0000  12.0000   7.0000 Du        
   2304 ****        10.0000  12.0000   7.2500 Du        
   2305 ****        10.0000  12.0000   7.5000 Du        
   2306 ****        10.0000  12.0000   7.7500 Du        
   2307 ****        10.0000  12.2500   6.7500 Du        
   2308 ****        10.0000  12.2500   7.0000 Du        
   2309 ****        10.0000  12.2500   7.2500 Du        
   2310 ****        10.0000  12.5000   6.2500 Du        
   2311 ****        10.0000  12.7500   5.7500 Du        
   2312 ****        10.0000  12.7500   6.0000 Du        
   2313 ****        10.0000  12.7500   6.2500 Du        
   2314 ****        10.0000  13.0000   4.0000 Du        
   2315 ****        10.0000  13.0000   4.2500 Du        
   2316 ****        10.0000  13.0000   4.5000 Du        
   2317 ****        10.0000  13.0000   4.7500 Du        
   2318 ****        10.0000  13.0000   5.0000 Du        
   2319 ****        10.0000  13.0000   5.2500 Du        
   2320 ****        10.0000  13.0000   5.5000 Du        
   2321 ****        10.0000  13.0000   5.7500 Du        
   2322 ****        10.0000  13.0000   6.0000 Du        
   2323 ****        10.0000  13.0000   6.2500 Du        
   2324 ****        10.0000  13.2500   3.7500 Du        
   2325 ****        10.0000  13.2500   4.0000 Du        
   2326 ****        10.0000  13.2500   4.2500 Du        
   2327 ****        10.0000  13.2500   4.5000 Du        
   2328 ****        10.0000  13.2500   4.7500 Du        
   2329 ****        10.0000  13.2500   5.0000 Du        
   2330 ****        10.0000  13.2500   5.2500 Du        
   2331 ****        10.0000  13.2500   5.5000 Du        
   2332 ****        10.0000  13.2500   5.7500 Du        
   2333 ****        10.0000  13.2500   6.0000 Du        
   2334 ****        10.0000  13.5000   4.0000 Du        
   2335 ****        10.0000  13.5000   4.2500 Du        
   2336 ****        10.0000  13.5000   4.5000 Du        
   2337 ****        10.0000  13.5000   4.7500 Du        
   2338 ****        10.0000  13.5000   5.0000 Du        
   2339 ****        10.0000  13.5000   5.2500 Du        
   2340 ****        10.0000  13.5000   5.5000 Du        
   2341 ****        10.0000  13.7500   4.2500 Du        
   2342 ****        10.0000  13.7500   4.5000 Du        
   2343 ****        10.0000  13.7500   4.7500 Du        
   2344 ****        10.0000  13.7500   5.0000 Du        
   2345 ****        10.0000  13.7500   5.2500 Du        
   2346 ****        10.0000  13.7500   5.5000 Du        
   2347 ****        10.0000  13.7500   5.7500 Du        
   2348 ****        10.0000  14.0000   4.5000 Du        
   2349 ****        10.0000  14.0000   4.7500 Du        
   2350 ****        10.0000  14.0000   5.0000 Du        
   2351 ****        10.0000  14.0000   5.2500 Du        
   2352 ****        10.0000  14.0000   5.5000 Du        
   2353 ****        10.0000  14.0000   5.7500 Du        
   2354 ****        10.0000  14.0000   6.0000 Du        
   2355 ****        10.0000  14.2500   4.7500 Du        
   2356 ****        10.0000  14.2500   5.0000 Du        
   2357 ****        10.0000  14.2500   5.2500 Du        
   2358 ****        10.0000  14.2500   5.5000 Du        
   2359 ****        10.0000  14.2500   5.7500 Du        
   2360 ****        10.0000  14.5000   5.0000 Du        
   2361 ****        10.0000  14.5000   5.2500 Du        
   2362 ****        10.0000  14.5000   5.5000 Du        
   2363 ****        10.0000  14.5000   5.7500 Du        
   2364 ****        10.0000  14.7500   5.2500 Du        
   2365 ****        10.0000  14.7500   5.5000 Du        
   2366 ****        10.0000  14.7500   5.7500 Du        
   2367 ****        10.0000  15.0000   5.2500 Du        
   2368 ****        10.2500 -11.7500  -8.5000 Du        
   2369 ****        10.2500 -11.7500  -8.2500 Du        
   2370 ****        10.2500 -11.7500  -8.0000 Du        
   2371 ****        10.2500  -1.7500   5.0000 Du        
   2372 ****        10.2500  -1.7500   5.2500 Du        
   2373 ****        10.2500  -1.5000   4.7500 Du        
   2374 ****        10.2500  -1.5000   5.0000 Du        
   2375 ****        10.2500  -1.5000   5.2500 Du        
   2376 ****        10.2500  -1.5000   5.5000 Du        
   2377 ****        10.2500  -1.5000   5.7500 Du        
   2378 ****        10.2500  -1.2500   4.5000 Du        
   2379 ****        10.2500  -1.2500   4.7500 Du        
   2380 ****        10.2500  -1.2500   5.0000 Du        
   2381 ****        10.2500  -1.2500   5.2500 Du        
   2382 ****        10.2500  -1.2500   5.5000 Du        
   2383 ****        10.2500  -1.2500   5.7500 Du        
   2384 ****        10.2500  -1.2500   6.0000 Du        
   2385 ****        10.2500  -1.2500   6.2500 Du        
   2386 ****        10.2500  -1.0000   4.5000 Du        
   2387 ****        10.2500  -1.0000   4.7500 Du        
   2388 ****        10.2500  -1.0000   5.0000 Du        
   2389 ****        10.2500  -1.0000   5.2500 Du        
   2390 ****        10.2500  -1.0000   5.5000 Du        
   2391 ****        10.2500  -1.0000   5.7500 Du        
   2392 ****        10.2500  -1.0000   6.0000 Du        
   2393 ****        10.2500  -1.0000   6.2500 Du        
   2394 ****        10.2500  -1.0000   6.5000 Du        
   2395 ****        10.2500  -0.7500   4.5000 Du        
   2396 ****        10.2500  -0.7500   4.7500 Du        
   2397 ****        10.2500  -0.7500   5.0000 Du        
   2398 ****        10.2500  -0.7500   5.2500 Du        
   2399 ****        10.2500  -0.7500   5.5000 Du        
   2400 ****        10.2500  -0.7500   5.7500 Du        
   2401 ****        10.2500  -0.7500   6.0000 Du        
   2402 ****        10.2500  -0.7500   6.2500 Du        
   2403 ****        10.2500  -0.7500   6.5000 Du        
   2404 ****        10.2500  -0.7500   6.7500 Du        
   2405 ****        10.2500  -0.5000   4.7500 Du        
   2406 ****        10.2500  -0.5000   5.0000 Du        
   2407 ****        10.2500  -0.5000   5.2500 Du        
   2408 ****        10.2500  -0.5000   5.5000 Du        
   2409 ****        10.2500  -0.5000   5.7500 Du        
   2410 ****        10.2500  -0.5000   6.0000 Du        
   2411 ****        10.2500  -0.5000   6.2500 Du        
   2412 ****        10.2500  -0.5000   6.5000 Du        
   2413 ****        10.2500  -0.5000   6.7500 Du        
   2414 ****        10.2500  -0.5000   7.0000 Du        
   2415 ****        10.2500  -0.2500   5.7500 Du        
   2416 ****        10.2500  -0.2500   6.0000 Du        
   2417 ****        10.2500  -0.2500   6.2500 Du        
   2418 ****        10.2500  -0.2500   6.5000 Du        
   2419 ****        10.2500  -0.2500   6.7500 Du        
   2420 ****        10.2500   0.0000   6.2500 Du        
   2421 ****        10.2500   0.2500 -13.2500 Du        
   2422 ****        10.2500   0.5000 -13.2500 Du        
   2423 ****        10.2500   0.5000 -13.0000 Du        
   2424 ****        10.2500  10.7500   7.2500 Du        
   2425 ****        10.2500  10.7500   7.5000 Du        
   2426 ****        10.2500  10.7500   7.7500 Du        
   2427 ****        10.2500  10.7500   8.0000 Du        
   2428 ****        10.2500  10.7500   8.2500 Du        
   2429 ****        10.2500  11.0000   7.0000 Du        
   2430 ****        10.2500  11.0000   7.2500 Du        
   2431 ****        10.2500  11.0000   7.5000 Du        
   2432 ****        10.2500  11.0000   7.7500 Du        
   2433 ****        10.2500  11.0000   8.0000 Du        
   2434 ****        10.2500  11.0000   8.2500 Du        
   2435 ****        10.2500  11.2500   6.7500 Du        
   2436 ****        10.2500  11.2500   7.0000 Du        
   2437 ****        10.2500  11.2500   7.2500 Du        
   2438 ****        10.2500  11.2500   7.5000 Du        
   2439 ****        10.2500  11.2500   7.7500 Du        
   2440 ****        10.2500  11.2500   8.0000 Du        
   2441 ****        10.2500  11.2500   8.2500 Du        
   2442 ****        10.2500  11.2500   8.5000 Du        
   2443 ****        10.2500  11.5000   6.7500 Du        
   2444 ****        10.2500  11.5000   7.0000 Du        
   2445 ****        10.2500  11.5000   7.2500 Du        
   2446 ****        10.2500  11.5000   7.5000 Du        
   2447 ****        10.2500  11.5000   7.7500 Du        
   2448 ****        10.2500  11.5000   8.0000 Du        
   2449 ****        10.2500  11.5000   8.2500 Du        
   2450 ****        10.2500  11.7500   6.7500 Du        
   2451 ****        10.2500  11.7500   7.0000 Du        
   2452 ****        10.2500  11.7500   7.2500 Du        
   2453 ****        10.2500  11.7500   7.5000 Du        
   2454 ****        10.2500  11.7500   7.7500 Du        
   2455 ****        10.2500  11.7500   8.0000 Du        
   2456 ****        10.2500  12.0000   6.2500 Du        
   2457 ****        10.2500  12.0000   6.5000 Du        
   2458 ****        10.2500  12.0000   6.7500 Du        
   2459 ****        10.2500  12.0000   7.0000 Du        
   2460 ****        10.2500  12.0000   7.2500 Du        
   2461 ****        10.2500  12.0000   7.5000 Du        
   2462 ****        10.2500  12.0000   7.7500 Du        
   2463 ****        10.2500  12.0000   8.0000 Du        
   2464 ****        10.2500  12.2500   6.0000 Du        
   2465 ****        10.2500  12.2500   6.2500 Du        
   2466 ****        10.2500  12.2500   6.5000 Du        
   2467 ****        10.2500  12.2500   6.7500 Du        
   2468 ****        10.2500  12.2500   7.0000 Du        
   2469 ****        10.2500  12.2500   7.2500 Du        
   2470 ****        10.2500  12.5000   5.7500 Du        
   2471 ****        10.2500  12.5000   6.0000 Du        
   2472 ****        10.2500  12.5000   6.2500 Du        
   2473 ****        10.2500  12.7500   4.5000 Du        
   2474 ****        10.2500  12.7500   4.7500 Du        
   2475 ****        10.2500  12.7500   5.0000 Du        
   2476 ****        10.2500  12.7500   5.2500 Du        
   2477 ****        10.2500  12.7500   5.5000 Du        
   2478 ****        10.2500  12.7500   5.7500 Du        
   2479 ****        10.2500  12.7500   6.0000 Du        
   2480 ****        10.2500  12.7500   6.2500 Du        
   2481 ****        10.2500  13.0000   4.0000 Du        
   2482 ****        10.2500  13.0000   4.2500 Du        
   2483 ****        10.2500  13.0000   4.5000 Du        
   2484 ****        10.2500  13.0000   4.7500 Du        
   2485 ****        10.2500  13.0000   5.0000 Du        
   2486 ****        10.2500  13.0000   5.2500 Du        
   2487 ****        10.2500  13.0000   5.5000 Du        
   2488 ****        10.2500  13.0000   5.7500 Du        
   2489 ****        10.2500  13.0000   6.0000 Du        
   2490 ****        10.2500  13.0000   6.2500 Du        
   2491 ****        10.2500  13.2500   4.0000 Du        
   2492 ****        10.2500  13.2500   4.2500 Du        
   2493 ****        10.2500  13.2500   4.5000 Du        
   2494 ****        10.2500  13.2500   4.7500 Du        
   2495 ****        10.2500  13.2500   5.0000 Du        
   2496 ****        10.2500  13.2500   5.2500 Du        
   2497 ****        10.2500  13.2500   5.5000 Du        
   2498 ****        10.2500  13.2500   5.7500 Du        
   2499 ****        10.2500  13.2500   6.0000 Du        
   2500 ****        10.2500  13.2500   6.2500 Du        
   2501 ****        10.2500  13.5000   4.0000 Du        
   2502 ****        10.2500  13.5000   4.2500 Du        
   2503 ****        10.2500  13.5000   4.5000 Du        
   2504 ****        10.2500  13.5000   4.7500 Du        
   2505 ****        10.2500  13.5000   5.0000 Du        
   2506 ****        10.2500  13.5000   5.2500 Du        
   2507 ****        10.2500  13.5000   5.5000 Du        
   2508 ****        10.2500  13.5000   5.7500 Du        
   2509 ****        10.2500  13.5000   6.0000 Du        
   2510 ****        10.2500  13.7500   4.2500 Du        
   2511 ****        10.2500  13.7500   4.5000 Du        
   2512 ****        10.2500  13.7500   4.7500 Du        
   2513 ****        10.2500  13.7500   5.0000 Du        
   2514 ****        10.2500  13.7500   5.2500 Du        
   2515 ****        10.2500  13.7500   5.5000 Du        
   2516 ****        10.2500  13.7500   5.7500 Du        
   2517 ****        10.2500  13.7500   6.0000 Du        
   2518 ****        10.2500  14.0000   4.5000 Du        
   2519 ****        10.2500  14.0000   4.7500 Du        
   2520 ****        10.2500  14.0000   5.0000 Du        
   2521 ****        10.2500  14.0000   5.2500 Du        
   2522 ****        10.2500  14.0000   5.5000 Du        
   2523 ****        10.2500  14.0000   5.7500 Du        
   2524 ****        10.2500  14.0000   6.0000 Du        
   2525 ****        10.2500  14.2500   4.7500 Du        
   2526 ****        10.2500  14.2500   5.0000 Du        
   2527 ****        10.2500  14.2500   5.2500 Du        
   2528 ****        10.2500  14.2500   5.5000 Du        
   2529 ****        10.2500  14.2500   5.7500 Du        
   2530 ****        10.2500  14.2500   6.0000 Du        
   2531 ****        10.2500  14.5000   5.0000 Du        
   2532 ****        10.2500  14.5000   5.2500 Du        
   2533 ****        10.2500  14.5000   5.5000 Du        
   2534 ****        10.2500  14.5000   5.7500 Du        
   2535 ****        10.2500  14.7500   5.2500 Du        
   2536 ****        10.2500  14.7500   5.5000 Du        
   2537 ****        10.5000 -11.7500  -8.2500 Du        
   2538 ****        10.5000 -11.7500  -8.0000 Du        
   2539 ****        10.5000 -11.5000  -8.5000 Du        
   2540 ****        10.5000 -11.5000  -8.2500 Du        
   2541 ****        10.5000 -11.5000  -8.0000 Du        
   2542 ****        10.5000 -11.5000  -7.7500 Du        
   2543 ****        10.5000 -11.2500  -8.7500 Du        
   2544 ****        10.5000 -11.2500  -8.5000 Du        
   2545 ****        10.5000 -11.2500  -8.2500 Du        
   2546 ****        10.5000 -11.2500  -8.0000 Du        
   2547 ****        10.5000 -11.2500  -7.7500 Du        
   2548 ****        10.5000 -11.0000  -8.7500 Du        
   2549 ****        10.5000 -11.0000  -8.5000 Du        
   2550 ****        10.5000  -3.2500  -5.0000 Du        
   2551 ****        10.5000  -3.2500  -4.7500 Du        
   2552 ****        10.5000  -3.2500  -4.5000 Du        
   2553 ****        10.5000  -3.0000  -5.0000 Du        
   2554 ****        10.5000  -3.0000  -4.7500 Du        
   2555 ****        10.5000  -3.0000  -4.5000 Du        
   2556 ****        10.5000  -3.0000  -4.2500 Du        
   2557 ****        10.5000  -2.7500  -5.0000 Du        
   2558 ****        10.5000  -2.7500  -4.7500 Du        
   2559 ****        10.5000  -2.7500  -4.5000 Du        
   2560 ****        10.5000  -2.5000  -5.0000 Du        
   2561 ****        10.5000  -2.5000  -4.7500 Du        
   2562 ****        10.5000  -2.5000  -4.5000 Du        
   2563 ****        10.5000  -2.2500  -5.0000 Du        
   2564 ****        10.5000  -2.2500  -4.7500 Du        
   2565 ****        10.5000  -1.7500   5.0000 Du        
   2566 ****        10.5000  -1.5000   4.5000 Du        
   2567 ****        10.5000  -1.5000   4.7500 Du        
   2568 ****        10.5000  -1.5000   5.0000 Du        
   2569 ****        10.5000  -1.5000   5.2500 Du        
   2570 ****        10.5000  -1.5000   5.5000 Du        
   2571 ****        10.5000  -1.2500   4.5000 Du        
   2572 ****        10.5000  -1.2500   4.7500 Du        
   2573 ****        10.5000  -1.2500   5.0000 Du        
   2574 ****        10.5000  -1.2500   5.2500 Du        
   2575 ****        10.5000  -1.2500   5.5000 Du        
   2576 ****        10.5000  -1.2500   5.7500 Du        
   2577 ****        10.5000  -1.2500   6.0000 Du        
   2578 ****        10.5000  -1.0000   4.2500 Du        
   2579 ****        10.5000  -1.0000   4.5000 Du        
   2580 ****        10.5000  -1.0000   4.7500 Du        
   2581 ****        10.5000  -1.0000   5.0000 Du        
   2582 ****        10.5000  -1.0000   5.2500 Du        
   2583 ****        10.5000  -1.0000   5.5000 Du        
   2584 ****        10.5000  -1.0000   5.7500 Du        
   2585 ****        10.5000  -1.0000   6.0000 Du        
   2586 ****        10.5000  -0.7500   4.5000 Du        
   2587 ****        10.5000  -0.7500   4.7500 Du        
   2588 ****        10.5000  -0.7500   5.0000 Du        
   2589 ****        10.5000  -0.7500   5.2500 Du        
   2590 ****        10.5000  -0.7500   5.5000 Du        
   2591 ****        10.5000  -0.7500   5.7500 Du        
   2592 ****        10.5000  -0.7500   6.0000 Du        
   2593 ****        10.5000  -0.7500   6.2500 Du        
   2594 ****        10.5000  -0.5000   5.0000 Du        
   2595 ****        10.5000  -0.5000   5.2500 Du        
   2596 ****        10.5000  -0.5000   5.5000 Du        
   2597 ****        10.5000  -0.5000   5.7500 Du        
   2598 ****        10.5000  -0.5000   6.0000 Du        
   2599 ****        10.5000  -0.5000   6.2500 Du        
   2600 ****        10.5000  -0.5000   6.5000 Du        
   2601 ****        10.5000  -0.2500   5.7500 Du        
   2602 ****        10.5000  -0.2500   6.0000 Du        
   2603 ****        10.5000  -0.2500   6.2500 Du        
   2604 ****        10.5000   0.0000   6.2500 Du        
   2605 ****        10.5000   0.5000 -13.2500 Du        
   2606 ****        10.5000   0.5000 -13.0000 Du        
   2607 ****        10.5000   0.7500 -13.0000 Du        
   2608 ****        10.5000   0.7500 -12.7500 Du        
   2609 ****        10.5000  10.7500   7.2500 Du        
   2610 ****        10.5000  10.7500   7.5000 Du        
   2611 ****        10.5000  10.7500   7.7500 Du        
   2612 ****        10.5000  10.7500   8.0000 Du        
   2613 ****        10.5000  11.0000   6.7500 Du        
   2614 ****        10.5000  11.0000   7.0000 Du        
   2615 ****        10.5000  11.0000   7.2500 Du        
   2616 ****        10.5000  11.0000   7.5000 Du        
   2617 ****        10.5000  11.0000   7.7500 Du        
   2618 ****        10.5000  11.0000   8.0000 Du        
   2619 ****        10.5000  11.0000   8.2500 Du        
   2620 ****        10.5000  11.2500   6.7500 Du        
   2621 ****        10.5000  11.2500   7.0000 Du        
   2622 ****        10.5000  11.2500   7.2500 Du        
   2623 ****        10.5000  11.2500   7.5000 Du        
   2624 ****        10.5000  11.2500   7.7500 Du        
   2625 ****        10.5000  11.2500   8.0000 Du        
   2626 ****        10.5000  11.2500   8.2500 Du        
   2627 ****        10.5000  11.2500   8.5000 Du        
   2628 ****        10.5000  11.5000   6.5000 Du        
   2629 ****        10.5000  11.5000   6.7500 Du        
   2630 ****        10.5000  11.5000   7.0000 Du        
   2631 ****        10.5000  11.5000   7.2500 Du        
   2632 ****        10.5000  11.5000   7.5000 Du        
   2633 ****        10.5000  11.5000   7.7500 Du        
   2634 ****        10.5000  11.5000   8.0000 Du        
   2635 ****        10.5000  11.5000   8.2500 Du        
   2636 ****        10.5000  11.7500   6.2500 Du        
   2637 ****        10.5000  11.7500   6.5000 Du        
   2638 ****        10.5000  11.7500   6.7500 Du        
   2639 ****        10.5000  11.7500   7.0000 Du        
   2640 ****        10.5000  11.7500   7.2500 Du        
   2641 ****        10.5000  11.7500   7.5000 Du        
   2642 ****        10.5000  11.7500   7.7500 Du        
   2643 ****        10.5000  11.7500   8.0000 Du        
   2644 ****        10.5000  11.7500   8.2500 Du        
   2645 ****        10.5000  12.0000   6.0000 Du        
   2646 ****        10.5000  12.0000   6.2500 Du        
   2647 ****        10.5000  12.0000   6.5000 Du        
   2648 ****        10.5000  12.0000   6.7500 Du        
   2649 ****        10.5000  12.0000   7.0000 Du        
   2650 ****        10.5000  12.0000   7.2500 Du        
   2651 ****        10.5000  12.0000   7.5000 Du        
   2652 ****        10.5000  12.0000   7.7500 Du        
   2653 ****        10.5000  12.0000   8.0000 Du        
   2654 ****        10.5000  12.0000   8.2500 Du        
   2655 ****        10.5000  12.2500   5.7500 Du        
   2656 ****        10.5000  12.2500   6.0000 Du        
   2657 ****        10.5000  12.2500   6.2500 Du        
   2658 ****        10.5000  12.2500   6.5000 Du        
   2659 ****        10.5000  12.2500   6.7500 Du        
   2660 ****        10.5000  12.2500   7.0000 Du        
   2661 ****        10.5000  12.2500   7.2500 Du        
   2662 ****        10.5000  12.5000   5.2500 Du        
   2663 ****        10.5000  12.5000   5.5000 Du        
   2664 ****        10.5000  12.5000   5.7500 Du        
   2665 ****        10.5000  12.5000   6.0000 Du        
   2666 ****        10.5000  12.5000   6.2500 Du        
   2667 ****        10.5000  12.5000   6.5000 Du        
   2668 ****        10.5000  12.5000   6.7500 Du        
   2669 ****        10.5000  12.7500   4.5000 Du        
   2670 ****        10.5000  12.7500   4.7500 Du        
   2671 ****        10.5000  12.7500   5.0000 Du        
   2672 ****        10.5000  12.7500   5.2500 Du        
   2673 ****        10.5000  12.7500   5.5000 Du        
   2674 ****        10.5000  12.7500   5.7500 Du        
   2675 ****        10.5000  12.7500   6.0000 Du        
   2676 ****        10.5000  12.7500   6.2500 Du        
   2677 ****        10.5000  12.7500   6.5000 Du        
   2678 ****        10.5000  12.7500   6.7500 Du        
   2679 ****        10.5000  13.0000   4.2500 Du        
   2680 ****        10.5000  13.0000   4.5000 Du        
   2681 ****        10.5000  13.0000   4.7500 Du        
   2682 ****        10.5000  13.0000   5.0000 Du        
   2683 ****        10.5000  13.0000   5.2500 Du        
   2684 ****        10.5000  13.0000   5.5000 Du        
   2685 ****        10.5000  13.0000   5.7500 Du        
   2686 ****        10.5000  13.0000   6.0000 Du        
   2687 ****        10.5000  13.0000   6.2500 Du        
   2688 ****        10.5000  13.0000   6.5000 Du        
   2689 ****        10.5000  13.0000   6.7500 Du        
   2690 ****        10.5000  13.2500   4.0000 Du        
   2691 ****        10.5000  13.2500   4.2500 Du        
   2692 ****        10.5000  13.2500   4.5000 Du        
   2693 ****        10.5000  13.2500   4.7500 Du        
   2694 ****        10.5000  13.2500   5.0000 Du        
   2695 ****        10.5000  13.2500   5.2500 Du        
   2696 ****        10.5000  13.2500   5.5000 Du        
   2697 ****        10.5000  13.2500   5.7500 Du        
   2698 ****        10.5000  13.2500   6.0000 Du        
   2699 ****        10.5000  13.2500   6.2500 Du        
   2700 ****        10.5000  13.2500   6.5000 Du        
   2701 ****        10.5000  13.5000   4.0000 Du        
   2702 ****        10.5000  13.5000   4.2500 Du        
   2703 ****        10.5000  13.5000   4.5000 Du        
   2704 ****        10.5000  13.5000   4.7500 Du        
   2705 ****        10.5000  13.5000   5.0000 Du        
   2706 ****        10.5000  13.5000   5.2500 Du        
   2707 ****        10.5000  13.5000   5.5000 Du        
   2708 ****        10.5000  13.5000   5.7500 Du        
   2709 ****        10.5000  13.5000   6.0000 Du        
   2710 ****        10.5000  13.5000   6.2500 Du        
   2711 ****        10.5000  13.7500   4.2500 Du        
   2712 ****        10.5000  13.7500   4.5000 Du        
   2713 ****        10.5000  13.7500   4.7500 Du        
   2714 ****        10.5000  13.7500   5.0000 Du        
   2715 ****        10.5000  13.7500   5.2500 Du        
   2716 ****        10.5000  13.7500   5.5000 Du        
   2717 ****        10.5000  13.7500   5.7500 Du        
   2718 ****        10.5000  13.7500   6.0000 Du        
   2719 ****        10.5000  13.7500   6.2500 Du        
   2720 ****        10.5000  14.0000   4.7500 Du        
   2721 ****        10.5000  14.0000   5.0000 Du        
   2722 ****        10.5000  14.0000   5.2500 Du        
   2723 ****        10.5000  14.0000   5.5000 Du        
   2724 ****        10.5000  14.0000   5.7500 Du        
   2725 ****        10.5000  14.0000   6.0000 Du        
   2726 ****        10.5000  14.2500   4.7500 Du        
   2727 ****        10.5000  14.2500   5.0000 Du        
   2728 ****        10.5000  14.2500   5.2500 Du        
   2729 ****        10.5000  14.2500   5.5000 Du        
   2730 ****        10.5000  14.2500   5.7500 Du        
   2731 ****        10.5000  14.2500   6.0000 Du        
   2732 ****        10.5000  14.5000   5.0000 Du        
   2733 ****        10.5000  14.5000   5.2500 Du        
   2734 ****        10.5000  14.5000   5.5000 Du        
   2735 ****        10.5000  14.5000   5.7500 Du        
   2736 ****        10.7500 -11.2500  -8.2500 Du        
   2737 ****        10.7500 -11.2500  -8.0000 Du        
   2738 ****        10.7500 -11.2500  -7.7500 Du        
   2739 ****        10.7500 -11.0000  -8.7500 Du        
   2740 ****        10.7500 -11.0000  -8.5000 Du        
   2741 ****        10.7500 -11.0000  -8.2500 Du        
   2742 ****        10.7500 -11.0000  -8.0000 Du        
   2743 ****        10.7500  -3.5000  -5.0000 Du        
   2744 ****        10.7500  -3.5000  -4.7500 Du        
   2745 ****        10.7500  -3.5000  -4.5000 Du        
   2746 ****        10.7500  -3.5000  -4.2500 Du        
   2747 ****        10.7500  -3.2500  -5.2500 Du        
   2748 ****        10.7500  -3.2500  -5.0000 Du        
   2749 ****        10.7500  -3.2500  -4.7500 Du        
   2750 ****        10.7500  -3.2500  -4.5000 Du        
   2751 ****        10.7500  -3.2500  -4.2500 Du        
   2752 ****        10.7500  -3.2500  -4.0000 Du        
   2753 ****        10.7500  -3.0000  -5.2500 Du        
   2754 ****        10.7500  -3.0000  -5.0000 Du        
   2755 ****        10.7500  -3.0000  -4.7500 Du        
   2756 ****        10.7500  -3.0000  -4.5000 Du        
   2757 ****        10.7500  -3.0000  -4.2500 Du        
   2758 ****        10.7500  -3.0000  -4.0000 Du        
   2759 ****        10.7500  -2.7500  -5.2500 Du        
   2760 ****        10.7500  -2.7500  -5.0000 Du        
   2761 ****        10.7500  -2.7500  -4.7500 Du        
   2762 ****        10.7500  -2.7500  -4.5000 Du        
   2763 ****        10.7500  -2.7500  -4.2500 Du        
   2764 ****        10.7500  -2.5000  -5.2500 Du        
   2765 ****        10.7500  -2.5000  -5.0000 Du        
   2766 ****        10.7500  -2.5000  -4.7500 Du        
   2767 ****        10.7500  -2.5000  -4.5000 Du        
   2768 ****        10.7500  -2.5000  -4.2500 Du        
   2769 ****        10.7500  -2.2500  -5.0000 Du        
   2770 ****        10.7500  -2.2500  -4.7500 Du        
   2771 ****        10.7500  -2.2500  -4.5000 Du        
   2772 ****        10.7500  -2.0000  -5.0000 Du        
   2773 ****        10.7500  -1.7500   4.7500 Du        
   2774 ****        10.7500  -1.7500   5.0000 Du        
   2775 ****        10.7500  -1.5000   4.2500 Du        
   2776 ****        10.7500  -1.5000   4.5000 Du        
   2777 ****        10.7500  -1.5000   4.7500 Du        
   2778 ****        10.7500  -1.5000   5.0000 Du        
   2779 ****        10.7500  -1.5000   5.2500 Du        
   2780 ****        10.7500  -1.5000   5.5000 Du        
   2781 ****        10.7500  -1.2500   4.2500 Du        
   2782 ****        10.7500  -1.2500   4.5000 Du        
   2783 ****        10.7500  -1.2500   4.7500 Du        
   2784 ****        10.7500  -1.2500   5.0000 Du        
   2785 ****        10.7500  -1.2500   5.2500 Du        
   2786 ****        10.7500  -1.2500   5.5000 Du        
   2787 ****        10.7500  -1.2500   5.7500 Du        
   2788 ****        10.7500  -1.0000   4.0000 Du        
   2789 ****        10.7500  -1.0000   4.2500 Du        
   2790 ****        10.7500  -1.0000   4.5000 Du        
   2791 ****        10.7500  -1.0000   4.7500 Du        
   2792 ****        10.7500  -1.0000   5.0000 Du        
   2793 ****        10.7500  -1.0000   5.2500 Du        
   2794 ****        10.7500  -1.0000   5.5000 Du        
   2795 ****        10.7500  -1.0000   5.7500 Du        
   2796 ****        10.7500  -1.0000   6.0000 Du        
   2797 ****        10.7500  -0.7500   4.2500 Du        
   2798 ****        10.7500  -0.7500   4.5000 Du        
   2799 ****        10.7500  -0.7500   4.7500 Du        
   2800 ****        10.7500  -0.7500   5.0000 Du        
   2801 ****        10.7500  -0.7500   5.2500 Du        
   2802 ****        10.7500  -0.7500   5.5000 Du        
   2803 ****        10.7500  -0.7500   5.7500 Du        
   2804 ****        10.7500  -0.7500   6.0000 Du        
   2805 ****        10.7500  -0.5000   4.7500 Du        
   2806 ****        10.7500  -0.5000   5.0000 Du        
   2807 ****        10.7500  -0.5000   5.2500 Du        
   2808 ****        10.7500  -0.5000   5.5000 Du        
   2809 ****        10.7500  -0.5000   5.7500 Du        
   2810 ****        10.7500  -0.5000   6.0000 Du        
   2811 ****        10.7500  -0.5000   6.2500 Du        
   2812 ****        10.7500  -0.2500   6.0000 Du        
   2813 ****        10.7500  -0.2500   6.2500 Du        
   2814 ****        10.7500   0.0000   6.2500 Du        
   2815 ****        10.7500   0.0000   6.7500 Du        
   2816 ****        10.7500   0.5000 -13.0000 Du        
   2817 ****        10.7500   0.7500 -13.2500 Du        
   2818 ****        10.7500   0.7500 -13.0000 Du        
   2819 ****        10.7500   0.7500 -12.7500 Du        
   2820 ****        10.7500   1.0000 -13.0000 Du        
   2821 ****        10.7500   1.0000 -12.7500 Du        
   2822 ****        10.7500   1.0000 -12.5000 Du        
   2823 ****        10.7500  10.7500   7.2500 Du        
   2824 ****        10.7500  10.7500   7.5000 Du        
   2825 ****        10.7500  10.7500   7.7500 Du        
   2826 ****        10.7500  11.0000   6.7500 Du        
   2827 ****        10.7500  11.0000   7.0000 Du        
   2828 ****        10.7500  11.0000   7.2500 Du        
   2829 ****        10.7500  11.0000   7.5000 Du        
   2830 ****        10.7500  11.0000   7.7500 Du        
   2831 ****        10.7500  11.0000   8.0000 Du        
   2832 ****        10.7500  11.2500   6.5000 Du        
   2833 ****        10.7500  11.2500   6.7500 Du        
   2834 ****        10.7500  11.2500   7.0000 Du        
   2835 ****        10.7500  11.2500   7.2500 Du        
   2836 ****        10.7500  11.2500   7.5000 Du        
   2837 ****        10.7500  11.2500   7.7500 Du        
   2838 ****        10.7500  11.2500   8.0000 Du        
   2839 ****        10.7500  11.2500   8.2500 Du        
   2840 ****        10.7500  11.5000   6.5000 Du        
   2841 ****        10.7500  11.5000   6.7500 Du        
   2842 ****        10.7500  11.5000   7.0000 Du        
   2843 ****        10.7500  11.5000   7.2500 Du        
   2844 ****        10.7500  11.5000   7.5000 Du        
   2845 ****        10.7500  11.5000   7.7500 Du        
   2846 ****        10.7500  11.5000   8.0000 Du        
   2847 ****        10.7500  11.5000   8.2500 Du        
   2848 ****        10.7500  11.7500   6.2500 Du        
   2849 ****        10.7500  11.7500   6.5000 Du        
   2850 ****        10.7500  11.7500   6.7500 Du        
   2851 ****        10.7500  11.7500   7.0000 Du        
   2852 ****        10.7500  11.7500   7.2500 Du        
   2853 ****        10.7500  11.7500   7.5000 Du        
   2854 ****        10.7500  11.7500   7.7500 Du        
   2855 ****        10.7500  11.7500   8.0000 Du        
   2856 ****        10.7500  11.7500   8.2500 Du        
   2857 ****        10.7500  12.0000   6.2500 Du        
   2858 ****        10.7500  12.0000   6.5000 Du        
   2859 ****        10.7500  12.0000   6.7500 Du        
   2860 ****        10.7500  12.0000   7.0000 Du        
   2861 ****        10.7500  12.0000   7.2500 Du        
   2862 ****        10.7500  12.0000   7.5000 Du        
   2863 ****        10.7500  12.0000   7.7500 Du        
   2864 ****        10.7500  12.0000   8.0000 Du        
   2865 ****        10.7500  12.0000   8.2500 Du        
   2866 ****        10.7500  12.2500   6.0000 Du        
   2867 ****        10.7500  12.2500   6.2500 Du        
   2868 ****        10.7500  12.2500   6.5000 Du        
   2869 ****        10.7500  12.2500   6.7500 Du        
   2870 ****        10.7500  12.2500   7.0000 Du        
   2871 ****        10.7500  12.2500   7.2500 Du        
   2872 ****        10.7500  12.2500   7.5000 Du        
   2873 ****        10.7500  12.2500   7.7500 Du        
   2874 ****        10.7500  12.2500   8.0000 Du        
   2875 ****        10.7500  12.5000   6.0000 Du        
   2876 ****        10.7500  12.5000   6.2500 Du        
   2877 ****        10.7500  12.5000   6.5000 Du        
   2878 ****        10.7500  12.5000   6.7500 Du        
   2879 ****        10.7500  12.5000   7.0000 Du        
   2880 ****        10.7500  12.5000   7.2500 Du        
   2881 ****        10.7500  12.7500   4.7500 Du        
   2882 ****        10.7500  12.7500   5.0000 Du        
   2883 ****        10.7500  12.7500   5.2500 Du        
   2884 ****        10.7500  12.7500   5.5000 Du        
   2885 ****        10.7500  12.7500   5.7500 Du        
   2886 ****        10.7500  12.7500   6.0000 Du        
   2887 ****        10.7500  12.7500   6.2500 Du        
   2888 ****        10.7500  12.7500   6.5000 Du        
   2889 ****        10.7500  12.7500   6.7500 Du        
   2890 ****        10.7500  12.7500   7.0000 Du        
   2891 ****        10.7500  12.7500   7.2500 Du        
   2892 ****        10.7500  13.0000   4.2500 Du        
   2893 ****        10.7500  13.0000   4.5000 Du        
   2894 ****        10.7500  13.0000   4.7500 Du        
   2895 ****        10.7500  13.0000   5.0000 Du        
   2896 ****        10.7500  13.0000   5.2500 Du        
   2897 ****        10.7500  13.0000   5.5000 Du        
   2898 ****        10.7500  13.0000   5.7500 Du        
   2899 ****        10.7500  13.0000   6.0000 Du        
   2900 ****        10.7500  13.0000   6.2500 Du        
   2901 ****        10.7500  13.0000   6.5000 Du        
   2902 ****        10.7500  13.0000   6.7500 Du        
   2903 ****        10.7500  13.0000   7.0000 Du        
   2904 ****        10.7500  13.2500   4.0000 Du        
   2905 ****        10.7500  13.2500   4.2500 Du        
   2906 ****        10.7500  13.2500   4.5000 Du        
   2907 ****        10.7500  13.2500   4.7500 Du        
   2908 ****        10.7500  13.2500   5.0000 Du        
   2909 ****        10.7500  13.2500   5.2500 Du        
   2910 ****        10.7500  13.2500   5.5000 Du        
   2911 ****        10.7500  13.2500   5.7500 Du        
   2912 ****        10.7500  13.2500   6.0000 Du        
   2913 ****        10.7500  13.2500   6.2500 Du        
   2914 ****        10.7500  13.2500   6.5000 Du        
   2915 ****        10.7500  13.2500   6.7500 Du        
   2916 ****        10.7500  13.5000   4.2500 Du        
   2917 ****        10.7500  13.5000   4.5000 Du        
   2918 ****        10.7500  13.5000   4.7500 Du        
   2919 ****        10.7500  13.5000   5.0000 Du        
   2920 ****        10.7500  13.5000   5.2500 Du        
   2921 ****        10.7500  13.5000   5.5000 Du        
   2922 ****        10.7500  13.5000   5.7500 Du        
   2923 ****        10.7500  13.5000   6.0000 Du        
   2924 ****        10.7500  13.5000   6.2500 Du        
   2925 ****        10.7500  13.7500   4.2500 Du        
   2926 ****        10.7500  13.7500   4.5000 Du        
   2927 ****        10.7500  13.7500   4.7500 Du        
   2928 ****        10.7500  13.7500   5.0000 Du        
   2929 ****        10.7500  13.7500   5.2500 Du        
   2930 ****        10.7500  13.7500   5.5000 Du        
   2931 ****        10.7500  13.7500   5.7500 Du        
   2932 ****        10.7500  13.7500   6.0000 Du        
   2933 ****        10.7500  13.7500   6.2500 Du        
   2934 ****        10.7500  14.0000   4.7500 Du        
   2935 ****        10.7500  14.0000   5.0000 Du        
   2936 ****        10.7500  14.0000   5.2500 Du        
   2937 ****        10.7500  14.0000   5.5000 Du        
   2938 ****        10.7500  14.0000   5.7500 Du        
   2939 ****        10.7500  14.0000   6.0000 Du        
   2940 ****        10.7500  14.0000   6.2500 Du        
   2941 ****        10.7500  14.2500   4.7500 Du        
   2942 ****        10.7500  14.2500   5.0000 Du        
   2943 ****        10.7500  14.2500   5.2500 Du        
   2944 ****        10.7500  14.2500   5.5000 Du        
   2945 ****        10.7500  14.2500   5.7500 Du        
   2946 ****        10.7500  14.2500   6.0000 Du        
   2947 ****        10.7500  14.5000   5.2500 Du        
   2948 ****        10.7500  14.5000   5.5000 Du        
   2949 ****        11.0000 -11.0000  -8.0000 Du        
   2950 ****        11.0000 -11.0000  -7.7500 Du        
   2951 ****        11.0000  -3.5000  -5.2500 Du        
   2952 ****        11.0000  -3.5000  -5.0000 Du        
   2953 ****        11.0000  -3.5000  -4.7500 Du        
   2954 ****        11.0000  -3.5000  -4.5000 Du        
   2955 ****        11.0000  -3.5000  -4.2500 Du        
   2956 ****        11.0000  -3.5000  -4.0000 Du        
   2957 ****        11.0000  -3.5000  -3.7500 Du        
   2958 ****        11.0000  -3.2500  -5.2500 Du        
   2959 ****        11.0000  -3.2500  -5.0000 Du        
   2960 ****        11.0000  -3.2500  -4.7500 Du        
   2961 ****        11.0000  -3.2500  -4.5000 Du        
   2962 ****        11.0000  -3.2500  -4.2500 Du        
   2963 ****        11.0000  -3.2500  -4.0000 Du        
   2964 ****        11.0000  -3.2500  -3.7500 Du        
   2965 ****        11.0000  -3.0000  -5.2500 Du        
   2966 ****        11.0000  -3.0000  -5.0000 Du        
   2967 ****        11.0000  -3.0000  -4.7500 Du        
   2968 ****        11.0000  -3.0000  -4.5000 Du        
   2969 ****        11.0000  -3.0000  -4.2500 Du        
   2970 ****        11.0000  -3.0000  -4.0000 Du        
   2971 ****        11.0000  -3.0000  -3.7500 Du        
   2972 ****        11.0000  -2.7500  -5.2500 Du        
   2973 ****        11.0000  -2.7500  -5.0000 Du        
   2974 ****        11.0000  -2.7500  -4.7500 Du        
   2975 ****        11.0000  -2.7500  -4.5000 Du        
   2976 ****        11.0000  -2.7500  -4.2500 Du        
   2977 ****        11.0000  -2.7500  -4.0000 Du        
   2978 ****        11.0000  -2.7500  -3.7500 Du        
   2979 ****        11.0000  -2.5000  -5.2500 Du        
   2980 ****        11.0000  -2.5000  -5.0000 Du        
   2981 ****        11.0000  -2.5000  -4.7500 Du        
   2982 ****        11.0000  -2.5000  -4.5000 Du        
   2983 ****        11.0000  -2.5000  -4.2500 Du        
   2984 ****        11.0000  -2.5000  -4.0000 Du        
   2985 ****        11.0000  -2.2500  -5.2500 Du        
   2986 ****        11.0000  -2.2500  -5.0000 Du        
   2987 ****        11.0000  -2.2500  -4.7500 Du        
   2988 ****        11.0000  -2.2500  -4.5000 Du        
   2989 ****        11.0000  -2.2500  -4.2500 Du        
   2990 ****        11.0000  -2.0000  -5.0000 Du        
   2991 ****        11.0000  -2.0000  -4.7500 Du        
   2992 ****        11.0000  -2.0000  -4.5000 Du        
   2993 ****        11.0000  -1.7500   4.2500 Du        
   2994 ****        11.0000  -1.7500   4.5000 Du        
   2995 ****        11.0000  -1.7500   4.7500 Du        
   2996 ****        11.0000  -1.5000   4.0000 Du        
   2997 ****        11.0000  -1.5000   4.2500 Du        
   2998 ****        11.0000  -1.5000   4.5000 Du        
   2999 ****        11.0000  -1.5000   4.7500 Du        
   3000 ****        11.0000  -1.5000   5.0000 Du        
   3001 ****        11.0000  -1.5000   5.2500 Du        
   3002 ****        11.0000  -1.2500   4.0000 Du        
   3003 ****        11.0000  -1.2500   4.2500 Du        
   3004 ****        11.0000  -1.2500   4.5000 Du        
   3005 ****        11.0000  -1.2500   4.7500 Du        
   3006 ****        11.0000  -1.2500   5.0000 Du        
   3007 ****        11.0000  -1.2500   5.2500 Du        
   3008 ****        11.0000  -1.2500   5.5000 Du        
   3009 ****        11.0000  -1.0000   3.7500 Du        
   3010 ****        11.0000  -1.0000   4.0000 Du        
   3011 ****        11.0000  -1.0000   4.2500 Du        
   3012 ****        11.0000  -1.0000   4.5000 Du        
   3013 ****        11.0000  -1.0000   4.7500 Du        
   3014 ****        11.0000  -1.0000   5.0000 Du        
   3015 ****        11.0000  -1.0000   5.2500 Du        
   3016 ****        11.0000  -1.0000   5.5000 Du        
   3017 ****        11.0000  -1.0000   5.7500 Du        
   3018 ****        11.0000  -0.7500   4.0000 Du        
   3019 ****        11.0000  -0.7500   4.2500 Du        
   3020 ****        11.0000  -0.7500   4.5000 Du        
   3021 ****        11.0000  -0.7500   4.7500 Du        
   3022 ****        11.0000  -0.7500   5.0000 Du        
   3023 ****        11.0000  -0.7500   5.2500 Du        
   3024 ****        11.0000  -0.7500   5.5000 Du        
   3025 ****        11.0000  -0.7500   5.7500 Du        
   3026 ****        11.0000  -0.5000   5.2500 Du        
   3027 ****        11.0000  -0.5000   5.5000 Du        
   3028 ****        11.0000  -0.5000   5.7500 Du        
   3029 ****        11.0000  -0.5000   6.0000 Du        
   3030 ****        11.0000   0.7500 -13.0000 Du        
   3031 ****        11.0000   0.7500 -12.7500 Du        
   3032 ****        11.0000   0.7500 -12.5000 Du        
   3033 ****        11.0000   1.0000 -13.0000 Du        
   3034 ****        11.0000   1.0000 -12.7500 Du        
   3035 ****        11.0000   1.0000 -12.5000 Du        
   3036 ****        11.0000   1.2500 -12.7500 Du        
   3037 ****        11.0000   1.2500 -12.5000 Du        
   3038 ****        11.0000  10.7500   7.2500 Du        
   3039 ****        11.0000  10.7500   7.5000 Du        
   3040 ****        11.0000  11.0000   7.0000 Du        
   3041 ****        11.0000  11.0000   7.2500 Du        
   3042 ****        11.0000  11.0000   7.5000 Du        
   3043 ****        11.0000  11.0000   7.7500 Du        
   3044 ****        11.0000  11.0000   8.0000 Du        
   3045 ****        11.0000  11.2500   6.7500 Du        
   3046 ****        11.0000  11.2500   7.0000 Du        
   3047 ****        11.0000  11.2500   7.2500 Du        
   3048 ****        11.0000  11.2500   7.5000 Du        
   3049 ****        11.0000  11.2500   7.7500 Du        
   3050 ****        11.0000  11.2500   8.0000 Du        
   3051 ****        11.0000  11.5000   6.7500 Du        
   3052 ****        11.0000  11.5000   7.0000 Du        
   3053 ****        11.0000  11.5000   7.2500 Du        
   3054 ****        11.0000  11.5000   7.5000 Du        
   3055 ****        11.0000  11.5000   7.7500 Du        
   3056 ****        11.0000  11.5000   8.0000 Du        
   3057 ****        11.0000  11.5000   8.2500 Du        
   3058 ****        11.0000  11.7500   6.5000 Du        
   3059 ****        11.0000  11.7500   6.7500 Du        
   3060 ****        11.0000  11.7500   7.0000 Du        
   3061 ****        11.0000  11.7500   7.2500 Du        
   3062 ****        11.0000  11.7500   7.5000 Du        
   3063 ****        11.0000  11.7500   7.7500 Du        
   3064 ****        11.0000  11.7500   8.0000 Du        
   3065 ****        11.0000  11.7500   8.2500 Du        
   3066 ****        11.0000  12.0000   6.5000 Du        
   3067 ****        11.0000  12.0000   6.7500 Du        
   3068 ****        11.0000  12.0000   7.0000 Du        
   3069 ****        11.0000  12.0000   7.2500 Du        
   3070 ****        11.0000  12.0000   7.5000 Du        
   3071 ****        11.0000  12.0000   7.7500 Du        
   3072 ****        11.0000  12.0000   8.0000 Du        
   3073 ****        11.0000  12.0000   8.2500 Du        
   3074 ****        11.0000  12.2500   6.2500 Du        
   3075 ****        11.0000  12.2500   6.5000 Du        
   3076 ****        11.0000  12.2500   6.7500 Du        
   3077 ****        11.0000  12.2500   7.0000 Du        
   3078 ****        11.0000  12.2500   7.2500 Du        
   3079 ****        11.0000  12.2500   7.5000 Du        
   3080 ****        11.0000  12.2500   7.7500 Du        
   3081 ****        11.0000  12.2500   8.0000 Du        
   3082 ****        11.0000  12.2500   8.2500 Du        
   3083 ****        11.0000  12.5000   6.7500 Du        
   3084 ****        11.0000  12.5000   7.0000 Du        
   3085 ****        11.0000  12.5000   7.2500 Du        
   3086 ****        11.0000  12.7500   6.0000 Du        
   3087 ****        11.0000  12.7500   6.2500 Du        
   3088 ****        11.0000  12.7500   6.5000 Du        
   3089 ****        11.0000  12.7500   6.7500 Du        
   3090 ****        11.0000  12.7500   7.0000 Du        
   3091 ****        11.0000  12.7500   7.2500 Du        
   3092 ****        11.0000  13.0000   4.5000 Du        
   3093 ****        11.0000  13.0000   4.7500 Du        
   3094 ****        11.0000  13.0000   5.0000 Du        
   3095 ****        11.0000  13.0000   5.2500 Du        
   3096 ****        11.0000  13.0000   5.5000 Du        
   3097 ****        11.0000  13.0000   5.7500 Du        
   3098 ****        11.0000  13.0000   6.0000 Du        
   3099 ****        11.0000  13.0000   6.2500 Du        
   3100 ****        11.0000  13.0000   6.5000 Du        
   3101 ****        11.0000  13.0000   6.7500 Du        
   3102 ****        11.0000  13.0000   7.0000 Du        
   3103 ****        11.0000  13.0000   7.2500 Du        
   3104 ****        11.0000  13.2500   4.2500 Du        
   3105 ****        11.0000  13.2500   4.5000 Du        
   3106 ****        11.0000  13.2500   4.7500 Du        
   3107 ****        11.0000  13.2500   5.0000 Du        
   3108 ****        11.0000  13.2500   5.2500 Du        
   3109 ****        11.0000  13.2500   5.5000 Du        
   3110 ****        11.0000  13.2500   5.7500 Du        
   3111 ****        11.0000  13.2500   6.0000 Du        
   3112 ****        11.0000  13.2500   6.2500 Du        
   3113 ****        11.0000  13.2500   6.5000 Du        
   3114 ****        11.0000  13.2500   6.7500 Du        
   3115 ****        11.0000  13.5000   4.2500 Du        
   3116 ****        11.0000  13.5000   4.5000 Du        
   3117 ****        11.0000  13.5000   4.7500 Du        
   3118 ****        11.0000  13.5000   5.0000 Du        
   3119 ****        11.0000  13.5000   5.2500 Du        
   3120 ****        11.0000  13.5000   5.5000 Du        
   3121 ****        11.0000  13.5000   5.7500 Du        
   3122 ****        11.0000  13.5000   6.0000 Du        
   3123 ****        11.0000  13.5000   6.2500 Du        
   3124 ****        11.0000  13.7500   4.5000 Du        
   3125 ****        11.0000  13.7500   4.7500 Du        
   3126 ****        11.0000  13.7500   5.0000 Du        
   3127 ****        11.0000  13.7500   5.2500 Du        
   3128 ****        11.0000  13.7500   5.5000 Du        
   3129 ****        11.0000  13.7500   5.7500 Du        
   3130 ****        11.0000  13.7500   6.0000 Du        
   3131 ****        11.0000  13.7500   6.2500 Du        
   3132 ****        11.0000  14.0000   4.7500 Du        
   3133 ****        11.0000  14.0000   5.0000 Du        
   3134 ****        11.0000  14.0000   5.2500 Du        
   3135 ****        11.0000  14.0000   5.5000 Du        
   3136 ****        11.0000  14.0000   5.7500 Du        
   3137 ****        11.0000  14.0000   6.0000 Du        
   3138 ****        11.0000  14.0000   6.2500 Du        
   3139 ****        11.0000  14.2500   5.0000 Du        
   3140 ****        11.0000  14.2500   5.2500 Du        
   3141 ****        11.0000  14.2500   5.5000 Du        
   3142 ****        11.0000  14.2500   5.7500 Du        
   3143 ****        11.0000  14.2500   6.0000 Du        
   3144 ****        11.2500  -3.5000  -5.2500 Du        
   3145 ****        11.2500  -3.5000  -5.0000 Du        
   3146 ****        11.2500  -3.5000  -4.7500 Du        
   3147 ****        11.2500  -3.5000  -4.5000 Du        
   3148 ****        11.2500  -3.5000  -4.2500 Du        
   3149 ****        11.2500  -3.5000  -4.0000 Du        
   3150 ****        11.2500  -3.5000  -3.7500 Du        
   3151 ****        11.2500  -3.5000  -3.5000 Du        
   3152 ****        11.2500  -3.2500  -5.5000 Du        
   3153 ****        11.2500  -3.2500  -5.2500 Du        
   3154 ****        11.2500  -3.2500  -5.0000 Du        
   3155 ****        11.2500  -3.2500  -4.7500 Du        
   3156 ****        11.2500  -3.2500  -4.5000 Du        
   3157 ****        11.2500  -3.2500  -4.2500 Du        
   3158 ****        11.2500  -3.2500  -4.0000 Du        
   3159 ****        11.2500  -3.2500  -3.7500 Du        
   3160 ****        11.2500  -3.2500  -3.5000 Du        
   3161 ****        11.2500  -3.2500  -3.2500 Du        
   3162 ****        11.2500  -3.0000  -5.2500 Du        
   3163 ****        11.2500  -3.0000  -5.0000 Du        
   3164 ****        11.2500  -3.0000  -4.7500 Du        
   3165 ****        11.2500  -3.0000  -4.5000 Du        
   3166 ****        11.2500  -3.0000  -4.2500 Du        
   3167 ****        11.2500  -3.0000  -4.0000 Du        
   3168 ****        11.2500  -3.0000  -3.7500 Du        
   3169 ****        11.2500  -3.0000  -3.5000 Du        
   3170 ****        11.2500  -2.7500  -5.2500 Du        
   3171 ****        11.2500  -2.7500  -5.0000 Du        
   3172 ****        11.2500  -2.7500  -4.7500 Du        
   3173 ****        11.2500  -2.7500  -4.5000 Du        
   3174 ****        11.2500  -2.7500  -4.2500 Du        
   3175 ****        11.2500  -2.7500  -4.0000 Du        
   3176 ****        11.2500  -2.7500  -3.7500 Du        
   3177 ****        11.2500  -2.5000  -5.2500 Du        
   3178 ****        11.2500  -2.5000  -5.0000 Du        
   3179 ****        11.2500  -2.5000  -4.7500 Du        
   3180 ****        11.2500  -2.5000  -4.5000 Du        
   3181 ****        11.2500  -2.5000  -4.2500 Du        
   3182 ****        11.2500  -2.5000  -4.0000 Du        
   3183 ****        11.2500  -2.5000  -3.7500 Du        
   3184 ****        11.2500  -2.2500  -5.2500 Du        
   3185 ****        11.2500  -2.2500  -5.0000 Du        
   3186 ****        11.2500  -2.2500  -4.7500 Du        
   3187 ****        11.2500  -2.2500  -4.5000 Du        
   3188 ****        11.2500  -2.2500  -4.2500 Du        
   3189 ****        11.2500  -2.2500  -4.0000 Du        
   3190 ****        11.2500  -2.0000  -5.2500 Du        
   3191 ****        11.2500  -2.0000  -5.0000 Du        
   3192 ****        11.2500  -2.0000  -4.7500 Du        
   3193 ****        11.2500  -2.0000  -4.5000 Du        
   3194 ****        11.2500  -2.0000  -4.2500 Du        
   3195 ****        11.2500  -2.0000   4.0000 Du        
   3196 ****        11.2500  -2.0000   4.2500 Du        
   3197 ****        11.2500  -1.7500  -4.7500 Du        
   3198 ****        11.2500  -1.7500   4.0000 Du        
   3199 ****        11.2500  -1.7500   4.2500 Du        
   3200 ****        11.2500  -1.5000   3.7500 Du        
   3201 ****        11.2500  -1.5000   4.0000 Du        
   3202 ****        11.2500  -1.5000   4.2500 Du        
   3203 ****        11.2500  -1.5000   4.5000 Du        
   3204 ****        11.2500  -1.5000   4.7500 Du        
   3205 ****        11.2500  -1.5000   5.0000 Du        
   3206 ****        11.2500  -1.5000   5.2500 Du        
   3207 ****        11.2500  -1.2500   3.7500 Du        
   3208 ****        11.2500  -1.2500   4.0000 Du        
   3209 ****        11.2500  -1.2500   4.2500 Du        
   3210 ****        11.2500  -1.2500   4.5000 Du        
   3211 ****        11.2500  -1.2500   4.7500 Du        
   3212 ****        11.2500  -1.2500   5.0000 Du        
   3213 ****        11.2500  -1.2500   5.2500 Du        
   3214 ****        11.2500  -1.0000   3.7500 Du        
   3215 ****        11.2500  -1.0000   4.0000 Du        
   3216 ****        11.2500  -1.0000   4.2500 Du        
   3217 ****        11.2500  -1.0000   4.5000 Du        
   3218 ****        11.2500  -1.0000   4.7500 Du        
   3219 ****        11.2500  -1.0000   5.0000 Du        
   3220 ****        11.2500  -1.0000   5.2500 Du        
   3221 ****        11.2500  -0.7500   4.0000 Du        
   3222 ****        11.2500  -0.7500   4.2500 Du        
   3223 ****        11.2500  -0.7500   4.5000 Du        
   3224 ****        11.2500  -0.7500   4.7500 Du        
   3225 ****        11.2500  -0.7500   5.0000 Du        
   3226 ****        11.2500  -0.7500   5.2500 Du        
   3227 ****        11.2500   0.7500 -12.7500 Du        
   3228 ****        11.2500   0.7500 -12.5000 Du        
   3229 ****        11.2500   1.0000 -13.0000 Du        
   3230 ****        11.2500   1.0000 -12.7500 Du        
   3231 ****        11.2500   1.0000 -12.5000 Du        
   3232 ****        11.2500   1.0000 -12.2500 Du        
   3233 ****        11.2500   1.2500 -13.0000 Du        
   3234 ****        11.2500   1.2500 -12.7500 Du        
   3235 ****        11.2500   1.2500 -12.5000 Du        
   3236 ****        11.2500  10.7500   7.2500 Du        
   3237 ****        11.2500  11.0000   7.0000 Du        
   3238 ****        11.2500  11.0000   7.2500 Du        
   3239 ****        11.2500  11.0000   7.5000 Du        
   3240 ****        11.2500  11.0000   7.7500 Du        
   3241 ****        11.2500  11.2500   7.0000 Du        
   3242 ****        11.2500  11.2500   7.2500 Du        
   3243 ****        11.2500  11.2500   7.5000 Du        
   3244 ****        11.2500  11.2500   7.7500 Du        
   3245 ****        11.2500  11.2500   8.0000 Du        
   3246 ****        11.2500  11.5000   7.0000 Du        
   3247 ****        11.2500  11.5000   7.2500 Du        
   3248 ****        11.2500  11.5000   7.5000 Du        
   3249 ****        11.2500  11.5000   7.7500 Du        
   3250 ****        11.2500  11.5000   8.0000 Du        
   3251 ****        11.2500  11.5000   8.2500 Du        
   3252 ****        11.2500  11.7500   6.7500 Du        
   3253 ****        11.2500  11.7500   7.0000 Du        
   3254 ****        11.2500  11.7500   7.2500 Du        
   3255 ****        11.2500  11.7500   7.5000 Du        
   3256 ****        11.2500  11.7500   7.7500 Du        
   3257 ****        11.2500  11.7500   8.0000 Du        
   3258 ****        11.2500  11.7500   8.2500 Du        
   3259 ****        11.2500  12.0000   6.7500 Du        
   3260 ****        11.2500  12.0000   7.0000 Du        
   3261 ****        11.2500  12.0000   7.2500 Du        
   3262 ****        11.2500  12.0000   7.5000 Du        
   3263 ****        11.2500  12.0000   7.7500 Du        
   3264 ****        11.2500  12.0000   8.0000 Du        
   3265 ****        11.2500  12.0000   8.2500 Du        
   3266 ****        11.2500  12.2500   6.7500 Du        
   3267 ****        11.2500  12.2500   7.0000 Du        
   3268 ****        11.2500  12.2500   7.2500 Du        
   3269 ****        11.2500  12.2500   7.5000 Du        
   3270 ****        11.2500  12.2500   7.7500 Du        
   3271 ****        11.2500  12.2500   8.0000 Du        
   3272 ****        11.2500  12.2500   8.2500 Du        
   3273 ****        11.2500  12.5000   6.7500 Du        
   3274 ****        11.2500  12.5000   7.0000 Du        
   3275 ****        11.2500  12.5000   7.2500 Du        
   3276 ****        11.2500  12.5000   7.5000 Du        
   3277 ****        11.2500  12.5000   7.7500 Du        
   3278 ****        11.2500  12.5000   8.0000 Du        
   3279 ****        11.2500  12.7500   6.7500 Du        
   3280 ****        11.2500  12.7500   7.0000 Du        
   3281 ****        11.2500  12.7500   7.2500 Du        
   3282 ****        11.2500  12.7500   7.5000 Du        
   3283 ****        11.2500  12.7500   7.7500 Du        
   3284 ****        11.2500  13.0000   6.2500 Du        
   3285 ****        11.2500  13.0000   6.5000 Du        
   3286 ****        11.2500  13.0000   6.7500 Du        
   3287 ****        11.2500  13.0000   7.0000 Du        
   3288 ****        11.2500  13.0000   7.2500 Du        
   3289 ****        11.2500  13.2500   4.5000 Du        
   3290 ****        11.2500  13.2500   4.7500 Du        
   3291 ****        11.2500  13.2500   5.0000 Du        
   3292 ****        11.2500  13.2500   5.2500 Du        
   3293 ****        11.2500  13.2500   5.7500 Du        
   3294 ****        11.2500  13.2500   6.0000 Du        
   3295 ****        11.2500  13.2500   6.2500 Du        
   3296 ****        11.2500  13.2500   6.5000 Du        
   3297 ****        11.2500  13.2500   6.7500 Du        
   3298 ****        11.2500  13.2500   7.0000 Du        
   3299 ****        11.2500  13.2500   7.2500 Du        
   3300 ****        11.2500  13.5000   4.2500 Du        
   3301 ****        11.2500  13.5000   4.5000 Du        
   3302 ****        11.2500  13.5000   4.7500 Du        
   3303 ****        11.2500  13.5000   5.0000 Du        
   3304 ****        11.2500  13.5000   5.2500 Du        
   3305 ****        11.2500  13.5000   5.5000 Du        
   3306 ****        11.2500  13.5000   5.7500 Du        
   3307 ****        11.2500  13.5000   6.0000 Du        
   3308 ****        11.2500  13.5000   6.2500 Du        
   3309 ****        11.2500  13.7500   4.5000 Du        
   3310 ****        11.2500  13.7500   4.7500 Du        
   3311 ****        11.2500  13.7500   5.0000 Du        
   3312 ****        11.2500  13.7500   5.2500 Du        
   3313 ****        11.2500  13.7500   5.5000 Du        
   3314 ****        11.2500  13.7500   5.7500 Du        
   3315 ****        11.2500  13.7500   6.0000 Du        
   3316 ****        11.2500  13.7500   6.2500 Du        
   3317 ****        11.2500  14.0000   4.7500 Du        
   3318 ****        11.2500  14.0000   5.0000 Du        
   3319 ****        11.2500  14.0000   5.2500 Du        
   3320 ****        11.2500  14.0000   5.5000 Du        
   3321 ****        11.2500  14.0000   5.7500 Du        
   3322 ****        11.2500  14.0000   6.0000 Du        
   3323 ****        11.2500  14.0000   6.2500 Du        
   3324 ****        11.5000  -4.0000  -5.2500 Du        
   3325 ****        11.5000  -3.7500  -5.5000 Du        
   3326 ****        11.5000  -3.7500  -5.2500 Du        
   3327 ****        11.5000  -3.7500  -5.0000 Du        
   3328 ****        11.5000  -3.7500  -4.7500 Du        
   3329 ****        11.5000  -3.7500  -4.5000 Du        
   3330 ****        11.5000  -3.7500  -4.2500 Du        
   3331 ****        11.5000  -3.7500  -4.0000 Du        
   3332 ****        11.5000  -3.5000  -5.5000 Du        
   3333 ****        11.5000  -3.5000  -5.2500 Du        
   3334 ****        11.5000  -3.5000  -5.0000 Du        
   3335 ****        11.5000  -3.5000  -4.7500 Du        
   3336 ****        11.5000  -3.5000  -4.5000 Du        
   3337 ****        11.5000  -3.5000  -4.2500 Du        
   3338 ****        11.5000  -3.5000  -4.0000 Du        
   3339 ****        11.5000  -3.5000  -3.7500 Du        
   3340 ****        11.5000  -3.5000  -3.5000 Du        
   3341 ****        11.5000  -3.5000  -3.2500 Du        
   3342 ****        11.5000  -3.2500  -5.5000 Du        
   3343 ****        11.5000  -3.2500  -5.2500 Du        
   3344 ****        11.5000  -3.2500  -5.0000 Du        
   3345 ****        11.5000  -3.2500  -4.7500 Du        
   3346 ****        11.5000  -3.2500  -4.5000 Du        
   3347 ****        11.5000  -3.2500  -4.2500 Du        
   3348 ****        11.5000  -3.2500  -4.0000 Du        
   3349 ****        11.5000  -3.2500  -3.7500 Du        
   3350 ****        11.5000  -3.2500  -3.5000 Du        
   3351 ****        11.5000  -3.2500  -3.2500 Du        
   3352 ****        11.5000  -3.0000  -5.5000 Du        
   3353 ****        11.5000  -3.0000  -5.2500 Du        
   3354 ****        11.5000  -3.0000  -5.0000 Du        
   3355 ****        11.5000  -3.0000  -4.7500 Du        
   3356 ****        11.5000  -3.0000  -4.5000 Du        
   3357 ****        11.5000  -3.0000  -4.2500 Du        
   3358 ****        11.5000  -3.0000  -4.0000 Du        
   3359 ****        11.5000  -3.0000  -3.7500 Du        
   3360 ****        11.5000  -3.0000  -3.5000 Du        
   3361 ****        11.5000  -3.0000  -3.2500 Du        
   3362 ****        11.5000  -2.7500  -5.5000 Du        
   3363 ****        11.5000  -2.7500  -5.2500 Du        
   3364 ****        11.5000  -2.7500  -5.0000 Du        
   3365 ****        11.5000  -2.7500  -4.7500 Du        
   3366 ****        11.5000  -2.7500  -4.5000 Du        
   3367 ****        11.5000  -2.7500  -4.2500 Du        
   3368 ****        11.5000  -2.7500  -4.0000 Du        
   3369 ****        11.5000  -2.7500  -3.7500 Du        
   3370 ****        11.5000  -2.7500  -3.5000 Du        
   3371 ****        11.5000  -2.5000  -5.5000 Du        
   3372 ****        11.5000  -2.5000  -5.2500 Du        
   3373 ****        11.5000  -2.5000  -5.0000 Du        
   3374 ****        11.5000  -2.5000  -4.7500 Du        
   3375 ****        11.5000  -2.5000  -4.5000 Du        
   3376 ****        11.5000  -2.5000  -4.2500 Du        
   3377 ****        11.5000  -2.5000  -4.0000 Du        
   3378 ****        11.5000  -2.5000  -3.7500 Du        
   3379 ****        11.5000  -2.5000  -3.5000 Du        
   3380 ****        11.5000  -2.2500  -5.2500 Du        
   3381 ****        11.5000  -2.2500  -5.0000 Du        
   3382 ****        11.5000  -2.2500  -4.7500 Du        
   3383 ****        11.5000  -2.2500  -4.5000 Du        
   3384 ****        11.5000  -2.2500  -4.2500 Du        
   3385 ****        11.5000  -2.2500  -4.0000 Du        
   3386 ****        11.5000  -2.2500  -3.7500 Du        
   3387 ****        11.5000  -2.0000  -5.2500 Du        
   3388 ****        11.5000  -2.0000  -5.0000 Du        
   3389 ****        11.5000  -2.0000  -4.7500 Du        
   3390 ****        11.5000  -2.0000  -4.5000 Du        
   3391 ****        11.5000  -2.0000  -4.2500 Du        
   3392 ****        11.5000  -2.0000  -4.0000 Du        
   3393 ****        11.5000  -1.7500  -4.7500 Du        
   3394 ****        11.5000  -1.7500   4.0000 Du        
   3395 ****        11.5000  -1.7500   4.2500 Du        
   3396 ****        11.5000  -1.5000   3.7500 Du        
   3397 ****        11.5000  -1.5000   4.0000 Du        
   3398 ****        11.5000  -1.5000   4.2500 Du        
   3399 ****        11.5000  -1.5000   4.5000 Du        
   3400 ****        11.5000  -1.5000   4.7500 Du        
   3401 ****        11.5000  -1.2500   3.7500 Du        
   3402 ****        11.5000  -1.2500   4.0000 Du        
   3403 ****        11.5000  -1.2500   4.2500 Du        
   3404 ****        11.5000  -1.2500   4.5000 Du        
   3405 ****        11.5000  -1.2500   4.7500 Du        
   3406 ****        11.5000  -1.0000   3.7500 Du        
   3407 ****        11.5000  -1.0000   4.0000 Du        
   3408 ****        11.5000  -1.0000   4.2500 Du        
   3409 ****        11.5000  -1.0000   4.5000 Du        
   3410 ****        11.5000  -1.0000   4.7500 Du        
   3411 ****        11.5000  -0.7500   4.0000 Du        
   3412 ****        11.5000  -0.7500   4.2500 Du        
   3413 ****        11.5000   0.7500 -12.7500 Du        
   3414 ****        11.5000   0.7500 -12.5000 Du        
   3415 ****        11.5000   1.0000 -13.0000 Du        
   3416 ****        11.5000   1.0000 -12.7500 Du        
   3417 ****        11.5000   1.0000 -12.5000 Du        
   3418 ****        11.5000   1.0000 -12.2500 Du        
   3419 ****        11.5000   1.2500 -13.2500 Du        
   3420 ****        11.5000   1.2500 -13.0000 Du        
   3421 ****        11.5000   1.2500 -12.7500 Du        
   3422 ****        11.5000   1.2500 -12.5000 Du        
   3423 ****        11.5000   1.5000 -13.2500 Du        
   3424 ****        11.5000   1.5000 -13.0000 Du        
   3425 ****        11.5000   1.5000 -12.7500 Du        
   3426 ****        11.5000   1.5000 -12.5000 Du        
   3427 ****        11.5000  11.0000   7.2500 Du        
   3428 ****        11.5000  11.0000   7.5000 Du        
   3429 ****        11.5000  11.2500   7.0000 Du        
   3430 ****        11.5000  11.2500   7.2500 Du        
   3431 ****        11.5000  11.2500   7.5000 Du        
   3432 ****        11.5000  11.2500   7.7500 Du        
   3433 ****        11.5000  11.2500   8.0000 Du        
   3434 ****        11.5000  11.5000   7.0000 Du        
   3435 ****        11.5000  11.5000   7.2500 Du        
   3436 ****        11.5000  11.5000   7.5000 Du        
   3437 ****        11.5000  11.5000   7.7500 Du        
   3438 ****        11.5000  11.5000   8.0000 Du        
   3439 ****        11.5000  11.5000   8.2500 Du        
   3440 ****        11.5000  11.7500   7.0000 Du        
   3441 ****        11.5000  11.7500   7.2500 Du        
   3442 ****        11.5000  11.7500   7.5000 Du        
   3443 ****        11.5000  11.7500   7.7500 Du        
   3444 ****        11.5000  11.7500   8.0000 Du        
   3445 ****        11.5000  11.7500   8.2500 Du        
   3446 ****        11.5000  12.0000   7.0000 Du        
   3447 ****        11.5000  12.0000   7.2500 Du        
   3448 ****        11.5000  12.0000   7.5000 Du        
   3449 ****        11.5000  12.0000   7.7500 Du        
   3450 ****        11.5000  12.0000   8.0000 Du        
   3451 ****        11.5000  12.0000   8.2500 Du        
   3452 ****        11.5000  12.0000   8.5000 Du        
   3453 ****        11.5000  12.2500   7.0000 Du        
   3454 ****        11.5000  12.2500   7.2500 Du        
   3455 ****        11.5000  12.2500   7.5000 Du        
   3456 ****        11.5000  12.2500   7.7500 Du        
   3457 ****        11.5000  12.2500   8.0000 Du        
   3458 ****        11.5000  12.2500   8.2500 Du        
   3459 ****        11.5000  12.2500   8.5000 Du        
   3460 ****        11.5000  12.2500   8.7500 Du        
   3461 ****        11.5000  12.5000   7.0000 Du        
   3462 ****        11.5000  12.5000   7.2500 Du        
   3463 ****        11.5000  12.5000   7.5000 Du        
   3464 ****        11.5000  12.5000   7.7500 Du        
   3465 ****        11.5000  12.5000   8.0000 Du        
   3466 ****        11.5000  12.5000   8.2500 Du        
   3467 ****        11.5000  12.7500   6.7500 Du        
   3468 ****        11.5000  12.7500   7.0000 Du        
   3469 ****        11.5000  12.7500   7.2500 Du        
   3470 ****        11.5000  12.7500   7.5000 Du        
   3471 ****        11.5000  12.7500   7.7500 Du        
   3472 ****        11.5000  12.7500   8.0000 Du        
   3473 ****        11.5000  12.7500   8.2500 Du        
   3474 ****        11.5000  13.0000   6.5000 Du        
   3475 ****        11.5000  13.0000   6.7500 Du        
   3476 ****        11.5000  13.0000   7.0000 Du        
   3477 ****        11.5000  13.0000   7.2500 Du        
   3478 ****        11.5000  13.0000   7.5000 Du        
   3479 ****        11.5000  13.0000   7.7500 Du        
   3480 ****        11.5000  13.0000   8.0000 Du        
   3481 ****        11.5000  13.2500   6.0000 Du        
   3482 ****        11.5000  13.2500   6.2500 Du        
   3483 ****        11.5000  13.2500   6.5000 Du        
   3484 ****        11.5000  13.2500   6.7500 Du        
   3485 ****        11.5000  13.2500   7.0000 Du        
   3486 ****        11.5000  13.2500   7.2500 Du        
   3487 ****        11.5000  13.5000   5.7500 Du        
   3488 ****        11.5000  13.5000   6.0000 Du        
   3489 ****        11.5000  13.5000   6.2500 Du        
   3490 ****        11.5000  13.5000   6.5000 Du        
   3491 ****        11.5000  13.5000   6.7500 Du        
   3492 ****        11.5000  13.5000   7.0000 Du        
   3493 ****        11.5000  13.5000   7.2500 Du        
   3494 ****        11.5000  13.7500   4.7500 Du        
   3495 ****        11.5000  13.7500   5.0000 Du        
   3496 ****        11.5000  13.7500   5.2500 Du        
   3497 ****        11.5000  13.7500   5.5000 Du        
   3498 ****        11.5000  13.7500   5.7500 Du        
   3499 ****        11.5000  13.7500   6.0000 Du        
   3500 ****        11.5000  13.7500   6.2500 Du        
   3501 ****        11.5000  13.7500   6.5000 Du        
   3502 ****        11.5000  13.7500   6.7500 Du        
   3503 ****        11.7500  -4.2500  -5.2500 Du        
   3504 ****        11.7500  -4.0000  -5.5000 Du        
   3505 ****        11.7500  -4.0000  -5.2500 Du        
   3506 ****        11.7500  -4.0000  -5.0000 Du        
   3507 ****        11.7500  -4.0000  -4.7500 Du        
   3508 ****        11.7500  -4.0000  -4.0000 Du        
   3509 ****        11.7500  -3.7500  -5.5000 Du        
   3510 ****        11.7500  -3.7500  -5.2500 Du        
   3511 ****        11.7500  -3.7500  -5.0000 Du        
   3512 ****        11.7500  -3.7500  -4.7500 Du        
   3513 ****        11.7500  -3.7500  -4.5000 Du        
   3514 ****        11.7500  -3.7500  -4.2500 Du        
   3515 ****        11.7500  -3.7500  -4.0000 Du        
   3516 ****        11.7500  -3.7500  -3.7500 Du        
   3517 ****        11.7500  -3.5000  -5.5000 Du        
   3518 ****        11.7500  -3.5000  -5.2500 Du        
   3519 ****        11.7500  -3.5000  -5.0000 Du        
   3520 ****        11.7500  -3.5000  -4.7500 Du        
   3521 ****        11.7500  -3.5000  -4.5000 Du        
   3522 ****        11.7500  -3.5000  -4.2500 Du        
   3523 ****        11.7500  -3.5000  -4.0000 Du        
   3524 ****        11.7500  -3.5000  -3.7500 Du        
   3525 ****        11.7500  -3.5000  -3.5000 Du        
   3526 ****        11.7500  -3.5000  -3.2500 Du        
   3527 ****        11.7500  -3.2500  -5.5000 Du        
   3528 ****        11.7500  -3.2500  -5.2500 Du        
   3529 ****        11.7500  -3.2500  -5.0000 Du        
   3530 ****        11.7500  -3.2500  -4.7500 Du        
   3531 ****        11.7500  -3.2500  -4.5000 Du        
   3532 ****        11.7500  -3.2500  -4.2500 Du        
   3533 ****        11.7500  -3.2500  -4.0000 Du        
   3534 ****        11.7500  -3.2500  -3.7500 Du        
   3535 ****        11.7500  -3.2500  -3.5000 Du        
   3536 ****        11.7500  -3.2500  -3.2500 Du        
   3537 ****        11.7500  -3.0000  -5.5000 Du        
   3538 ****        11.7500  -3.0000  -5.2500 Du        
   3539 ****        11.7500  -3.0000  -5.0000 Du        
   3540 ****        11.7500  -3.0000  -4.7500 Du        
   3541 ****        11.7500  -3.0000  -4.5000 Du        
   3542 ****        11.7500  -3.0000  -4.2500 Du        
   3543 ****        11.7500  -3.0000  -4.0000 Du        
   3544 ****        11.7500  -3.0000  -3.7500 Du        
   3545 ****        11.7500  -3.0000  -3.5000 Du        
   3546 ****        11.7500  -3.0000  -3.2500 Du        
   3547 ****        11.7500  -2.7500  -5.5000 Du        
   3548 ****        11.7500  -2.7500  -5.2500 Du        
   3549 ****        11.7500  -2.7500  -5.0000 Du        
   3550 ****        11.7500  -2.7500  -4.7500 Du        
   3551 ****        11.7500  -2.7500  -4.5000 Du        
   3552 ****        11.7500  -2.7500  -4.2500 Du        
   3553 ****        11.7500  -2.7500  -4.0000 Du        
   3554 ****        11.7500  -2.7500  -3.7500 Du        
   3555 ****        11.7500  -2.7500  -3.5000 Du        
   3556 ****        11.7500  -2.5000  -5.5000 Du        
   3557 ****        11.7500  -2.5000  -5.2500 Du        
   3558 ****        11.7500  -2.5000  -5.0000 Du        
   3559 ****        11.7500  -2.5000  -4.7500 Du        
   3560 ****        11.7500  -2.5000  -4.5000 Du        
   3561 ****        11.7500  -2.5000  -4.2500 Du        
   3562 ****        11.7500  -2.5000  -4.0000 Du        
   3563 ****        11.7500  -2.5000  -3.7500 Du        
   3564 ****        11.7500  -2.5000  -3.5000 Du        
   3565 ****        11.7500  -2.2500  -5.5000 Du        
   3566 ****        11.7500  -2.2500  -5.2500 Du        
   3567 ****        11.7500  -2.2500  -5.0000 Du        
   3568 ****        11.7500  -2.2500  -4.7500 Du        
   3569 ****        11.7500  -2.2500  -4.5000 Du        
   3570 ****        11.7500  -2.2500  -4.2500 Du        
   3571 ****        11.7500  -2.2500  -4.0000 Du        
   3572 ****        11.7500  -2.2500  -3.7500 Du        
   3573 ****        11.7500  -2.0000  -5.2500 Du        
   3574 ****        11.7500  -2.0000  -5.0000 Du        
   3575 ****        11.7500  -2.0000  -4.7500 Du        
   3576 ****        11.7500  -2.0000  -4.5000 Du        
   3577 ****        11.7500  -2.0000  -4.2500 Du        
   3578 ****        11.7500  -2.0000  -4.0000 Du        
   3579 ****        11.7500  -2.0000  -3.7500 Du        
   3580 ****        11.7500  -1.7500   4.0000 Du        
   3581 ****        11.7500  -1.7500   4.2500 Du        
   3582 ****        11.7500  -1.5000   3.7500 Du        
   3583 ****        11.7500  -1.5000   4.0000 Du        
   3584 ****        11.7500  -1.5000   4.2500 Du        
   3585 ****        11.7500  -1.5000   4.5000 Du        
   3586 ****        11.7500  -1.5000   4.7500 Du        
   3587 ****        11.7500  -1.2500   3.7500 Du        
   3588 ****        11.7500  -1.2500   4.0000 Du        
   3589 ****        11.7500  -1.2500   4.2500 Du        
   3590 ****        11.7500  -1.2500   4.5000 Du        
   3591 ****        11.7500  -1.2500   4.7500 Du        
   3592 ****        11.7500  -1.0000   3.7500 Du        
   3593 ****        11.7500  -1.0000   4.0000 Du        
   3594 ****        11.7500  -1.0000   4.2500 Du        
   3595 ****        11.7500  -1.0000   4.5000 Du        
   3596 ****        11.7500   1.0000 -12.7500 Du        
   3597 ****        11.7500   1.0000 -12.5000 Du        
   3598 ****        11.7500   1.0000 -12.2500 Du        
   3599 ****        11.7500   1.2500 -13.0000 Du        
   3600 ****        11.7500   1.2500 -12.7500 Du        
   3601 ****        11.7500   1.2500 -12.5000 Du        
   3602 ****        11.7500   1.2500 -12.2500 Du        
   3603 ****        11.7500   1.5000 -13.2500 Du        
   3604 ****        11.7500   1.5000 -13.0000 Du        
   3605 ****        11.7500   1.5000 -12.7500 Du        
   3606 ****        11.7500   1.5000 -12.5000 Du        
   3607 ****        11.7500   1.5000   8.2500 Du        
   3608 ****        11.7500   1.7500 -13.5000 Du        
   3609 ****        11.7500   1.7500 -13.2500 Du        
   3610 ****        11.7500   1.7500 -13.0000 Du        
   3611 ****        11.7500   1.7500 -12.7500 Du        
   3612 ****        11.7500   1.7500   8.0000 Du        
   3613 ****        11.7500   1.7500   8.2500 Du        
   3614 ****        11.7500   2.0000   8.0000 Du        
   3615 ****        11.7500   2.0000   8.2500 Du        
   3616 ****        11.7500  11.0000   7.2500 Du        
   3617 ****        11.7500  11.0000   7.5000 Du        
   3618 ****        11.7500  11.2500   7.2500 Du        
   3619 ****        11.7500  11.2500   7.5000 Du        
   3620 ****        11.7500  11.2500   7.7500 Du        
   3621 ****        11.7500  11.2500   8.0000 Du        
   3622 ****        11.7500  11.5000   7.2500 Du        
   3623 ****        11.7500  11.5000   7.5000 Du        
   3624 ****        11.7500  11.5000   7.7500 Du        
   3625 ****        11.7500  11.5000   8.0000 Du        
   3626 ****        11.7500  11.5000   8.2500 Du        
   3627 ****        11.7500  11.7500   7.2500 Du        
   3628 ****        11.7500  11.7500   7.5000 Du        
   3629 ****        11.7500  11.7500   7.7500 Du        
   3630 ****        11.7500  11.7500   8.0000 Du        
   3631 ****        11.7500  11.7500   8.2500 Du        
   3632 ****        11.7500  12.0000   7.2500 Du        
   3633 ****        11.7500  12.0000   7.5000 Du        
   3634 ****        11.7500  12.0000   7.7500 Du        
   3635 ****        11.7500  12.0000   8.0000 Du        
   3636 ****        11.7500  12.0000   8.2500 Du        
   3637 ****        11.7500  12.0000   8.5000 Du        
   3638 ****        11.7500  12.2500   7.0000 Du        
   3639 ****        11.7500  12.2500   7.2500 Du        
   3640 ****        11.7500  12.2500   7.5000 Du        
   3641 ****        11.7500  12.2500   7.7500 Du        
   3642 ****        11.7500  12.2500   8.0000 Du        
   3643 ****        11.7500  12.2500   8.2500 Du        
   3644 ****        11.7500  12.2500   8.5000 Du        
   3645 ****        11.7500  12.2500   8.7500 Du        
   3646 ****        11.7500  12.5000   7.0000 Du        
   3647 ****        11.7500  12.5000   7.2500 Du        
   3648 ****        11.7500  12.5000   7.5000 Du        
   3649 ****        11.7500  12.5000   7.7500 Du        
   3650 ****        11.7500  12.5000   8.0000 Du        
   3651 ****        11.7500  12.5000   8.2500 Du        
   3652 ****        11.7500  12.5000   8.5000 Du        
   3653 ****        11.7500  12.7500   7.0000 Du        
   3654 ****        11.7500  12.7500   7.2500 Du        
   3655 ****        11.7500  12.7500   7.5000 Du        
   3656 ****        11.7500  12.7500   7.7500 Du        
   3657 ****        11.7500  12.7500   8.0000 Du        
   3658 ****        11.7500  12.7500   8.2500 Du        
   3659 ****        11.7500  12.7500   8.5000 Du        
   3660 ****        11.7500  13.0000   6.7500 Du        
   3661 ****        11.7500  13.0000   7.0000 Du        
   3662 ****        11.7500  13.0000   7.2500 Du        
   3663 ****        11.7500  13.0000   7.5000 Du        
   3664 ****        11.7500  13.0000   7.7500 Du        
   3665 ****        11.7500  13.0000   8.0000 Du        
   3666 ****        11.7500  13.0000   8.2500 Du        
   3667 ****        11.7500  13.2500   6.2500 Du        
   3668 ****        11.7500  13.2500   6.5000 Du        
   3669 ****        11.7500  13.2500   6.7500 Du        
   3670 ****        11.7500  13.2500   7.0000 Du        
   3671 ****        11.7500  13.2500   7.2500 Du        
   3672 ****        11.7500  13.2500   7.5000 Du        
   3673 ****        11.7500  13.2500   7.7500 Du        
   3674 ****        11.7500  13.2500   8.0000 Du        
   3675 ****        11.7500  13.2500   8.2500 Du        
   3676 ****        11.7500  13.5000   6.2500 Du        
   3677 ****        11.7500  13.5000   6.5000 Du        
   3678 ****        11.7500  13.5000   6.7500 Du        
   3679 ****        11.7500  13.5000   7.0000 Du        
   3680 ****        11.7500  13.5000   7.2500 Du        
   3681 ****        11.7500  13.7500   6.0000 Du        
   3682 ****        11.7500  13.7500   6.2500 Du        
   3683 ****        11.7500  13.7500   6.5000 Du        
   3684 ****        11.7500  13.7500   6.7500 Du        
   3685 ****        11.7500  13.7500   7.0000 Du        
   3686 ****        12.0000  -4.2500  -5.5000 Du        
   3687 ****        12.0000  -4.2500  -5.2500 Du        
   3688 ****        12.0000  -4.2500  -5.0000 Du        
   3689 ****        12.0000  -4.2500  -4.7500 Du        
   3690 ****        12.0000  -4.0000  -5.5000 Du        
   3691 ****        12.0000  -4.0000  -5.2500 Du        
   3692 ****        12.0000  -4.0000  -5.0000 Du        
   3693 ****        12.0000  -4.0000  -4.7500 Du        
   3694 ****        12.0000  -4.0000  -4.5000 Du        
   3695 ****        12.0000  -4.0000  -4.2500 Du        
   3696 ****        12.0000  -4.0000  -4.0000 Du        
   3697 ****        12.0000  -4.0000  -3.7500 Du        
   3698 ****        12.0000  -3.7500  -5.5000 Du        
   3699 ****        12.0000  -3.7500  -5.2500 Du        
   3700 ****        12.0000  -3.7500  -5.0000 Du        
   3701 ****        12.0000  -3.7500  -4.7500 Du        
   3702 ****        12.0000  -3.7500  -4.5000 Du        
   3703 ****        12.0000  -3.7500  -4.2500 Du        
   3704 ****        12.0000  -3.7500  -4.0000 Du        
   3705 ****        12.0000  -3.7500  -3.7500 Du        
   3706 ****        12.0000  -3.5000  -5.7500 Du        
   3707 ****        12.0000  -3.5000  -5.5000 Du        
   3708 ****        12.0000  -3.5000  -5.2500 Du        
   3709 ****        12.0000  -3.5000  -5.0000 Du        
   3710 ****        12.0000  -3.5000  -4.7500 Du        
   3711 ****        12.0000  -3.5000  -4.5000 Du        
   3712 ****        12.0000  -3.5000  -4.2500 Du        
   3713 ****        12.0000  -3.5000  -4.0000 Du        
   3714 ****        12.0000  -3.5000  -3.7500 Du        
   3715 ****        12.0000  -3.5000  -3.5000 Du        
   3716 ****        12.0000  -3.5000  -3.2500 Du        
   3717 ****        12.0000  -3.2500  -5.7500 Du        
   3718 ****        12.0000  -3.2500  -5.5000 Du        
   3719 ****        12.0000  -3.2500  -5.2500 Du        
   3720 ****        12.0000  -3.2500  -5.0000 Du        
   3721 ****        12.0000  -3.2500  -4.7500 Du        
   3722 ****        12.0000  -3.2500  -4.5000 Du        
   3723 ****        12.0000  -3.2500  -4.2500 Du        
   3724 ****        12.0000  -3.2500  -4.0000 Du        
   3725 ****        12.0000  -3.2500  -3.7500 Du        
   3726 ****        12.0000  -3.2500  -3.5000 Du        
   3727 ****        12.0000  -3.2500  -3.2500 Du        
   3728 ****        12.0000  -3.0000  -5.5000 Du        
   3729 ****        12.0000  -3.0000  -5.2500 Du        
   3730 ****        12.0000  -3.0000  -5.0000 Du        
   3731 ****        12.0000  -3.0000  -4.7500 Du        
   3732 ****        12.0000  -3.0000  -4.5000 Du        
   3733 ****        12.0000  -3.0000  -4.2500 Du        
   3734 ****        12.0000  -3.0000  -4.0000 Du        
   3735 ****        12.0000  -3.0000  -3.7500 Du        
   3736 ****        12.0000  -3.0000  -3.5000 Du        
   3737 ****        12.0000  -3.0000  -3.2500 Du        
   3738 ****        12.0000  -2.7500  -5.5000 Du        
   3739 ****        12.0000  -2.7500  -5.2500 Du        
   3740 ****        12.0000  -2.7500  -5.0000 Du        
   3741 ****        12.0000  -2.7500  -4.7500 Du        
   3742 ****        12.0000  -2.7500  -4.5000 Du        
   3743 ****        12.0000  -2.7500  -4.2500 Du        
   3744 ****        12.0000  -2.7500  -4.0000 Du        
   3745 ****        12.0000  -2.7500  -3.7500 Du        
   3746 ****        12.0000  -2.7500  -3.5000 Du        
   3747 ****        12.0000  -2.5000  -5.5000 Du        
   3748 ****        12.0000  -2.5000  -5.2500 Du        
   3749 ****        12.0000  -2.5000  -5.0000 Du        
   3750 ****        12.0000  -2.5000  -4.7500 Du        
   3751 ****        12.0000  -2.5000  -4.5000 Du        
   3752 ****        12.0000  -2.5000  -4.2500 Du        
   3753 ****        12.0000  -2.5000  -4.0000 Du        
   3754 ****        12.0000  -2.5000  -3.7500 Du        
   3755 ****        12.0000  -2.5000  -3.5000 Du        
   3756 ****        12.0000  -2.2500  -5.5000 Du        
   3757 ****        12.0000  -2.2500  -5.2500 Du        
   3758 ****        12.0000  -2.2500  -5.0000 Du        
   3759 ****        12.0000  -2.2500  -4.7500 Du        
   3760 ****        12.0000  -2.2500  -4.5000 Du        
   3761 ****        12.0000  -2.2500  -4.2500 Du        
   3762 ****        12.0000  -2.2500  -4.0000 Du        
   3763 ****        12.0000  -2.2500  -3.7500 Du        
   3764 ****        12.0000  -2.2500  -3.5000 Du        
   3765 ****        12.0000  -2.0000  -5.5000 Du        
   3766 ****        12.0000  -2.0000  -5.2500 Du        
   3767 ****        12.0000  -2.0000  -5.0000 Du        
   3768 ****        12.0000  -2.0000  -4.7500 Du        
   3769 ****        12.0000  -2.0000  -4.5000 Du        
   3770 ****        12.0000  -2.0000  -4.2500 Du        
   3771 ****        12.0000  -2.0000  -4.0000 Du        
   3772 ****        12.0000  -2.0000  -3.7500 Du        
   3773 ****        12.0000  -1.7500   4.0000 Du        
   3774 ****        12.0000  -1.7500   4.2500 Du        
   3775 ****        12.0000  -1.5000   3.7500 Du        
   3776 ****        12.0000  -1.5000   4.0000 Du        
   3777 ****        12.0000  -1.5000   4.2500 Du        
   3778 ****        12.0000  -1.5000   4.5000 Du        
   3779 ****        12.0000  -1.2500   3.7500 Du        
   3780 ****        12.0000  -1.2500   4.0000 Du        
   3781 ****        12.0000  -1.2500   4.2500 Du        
   3782 ****        12.0000  -1.2500   4.5000 Du        
   3783 ****        12.0000  -1.0000   4.0000 Du        
   3784 ****        12.0000  -1.0000   4.2500 Du        
   3785 ****        12.0000   1.0000 -12.5000 Du        
   3786 ****        12.0000   1.2500 -13.0000 Du        
   3787 ****        12.0000   1.2500 -12.7500 Du        
   3788 ****        12.0000   1.2500 -12.5000 Du        
   3789 ****        12.0000   1.5000 -13.2500 Du        
   3790 ****        12.0000   1.5000 -13.0000 Du        
   3791 ****        12.0000   1.5000 -12.7500 Du        
   3792 ****        12.0000   1.5000 -12.5000 Du        
   3793 ****        12.0000   1.5000   8.2500 Du        
   3794 ****        12.0000   1.7500 -13.5000 Du        
   3795 ****        12.0000   1.7500 -13.2500 Du        
   3796 ****        12.0000   1.7500 -13.0000 Du        
   3797 ****        12.0000   1.7500 -12.7500 Du        
   3798 ****        12.0000   1.7500   8.0000 Du        
   3799 ****        12.0000   1.7500   8.2500 Du        
   3800 ****        12.0000   2.0000 -13.7500 Du        
   3801 ****        12.0000   2.0000 -13.5000 Du        
   3802 ****        12.0000   2.0000 -13.2500 Du        
   3803 ****        12.0000   2.0000 -13.0000 Du        
   3804 ****        12.0000   2.0000   8.2500 Du        
   3805 ****        12.0000   2.0000   8.7500 Du        
   3806 ****        12.0000   2.2500 -13.5000 Du        
   3807 ****        12.0000  11.2500   7.5000 Du        
   3808 ****        12.0000  11.2500   7.7500 Du        
   3809 ****        12.0000  11.5000   7.5000 Du        
   3810 ****        12.0000  11.5000   7.7500 Du        
   3811 ****        12.0000  11.5000   8.0000 Du        
   3812 ****        12.0000  11.7500   7.2500 Du        
   3813 ****        12.0000  11.7500   7.5000 Du        
   3814 ****        12.0000  11.7500   7.7500 Du        
   3815 ****        12.0000  11.7500   8.0000 Du        
   3816 ****        12.0000  11.7500   8.2500 Du        
   3817 ****        12.0000  12.0000   7.2500 Du        
   3818 ****        12.0000  12.0000   7.5000 Du        
   3819 ****        12.0000  12.0000   7.7500 Du        
   3820 ****        12.0000  12.0000   8.0000 Du        
   3821 ****        12.0000  12.0000   8.2500 Du        
   3822 ****        12.0000  12.0000   8.5000 Du        
   3823 ****        12.0000  12.2500   7.2500 Du        
   3824 ****        12.0000  12.2500   7.5000 Du        
   3825 ****        12.0000  12.2500   7.7500 Du        
   3826 ****        12.0000  12.2500   8.0000 Du        
   3827 ****        12.0000  12.2500   8.2500 Du        
   3828 ****        12.0000  12.2500   8.5000 Du        
   3829 ****        12.0000  12.2500   8.7500 Du        
   3830 ****        12.0000  12.5000   7.2500 Du        
   3831 ****        12.0000  12.5000   7.5000 Du        
   3832 ****        12.0000  12.5000   7.7500 Du        
   3833 ****        12.0000  12.5000   8.0000 Du        
   3834 ****        12.0000  12.5000   8.2500 Du        
   3835 ****        12.0000  12.5000   8.5000 Du        
   3836 ****        12.0000  12.5000   8.7500 Du        
   3837 ****        12.0000  12.5000   9.0000 Du        
   3838 ****        12.0000  12.7500   7.0000 Du        
   3839 ****        12.0000  12.7500   7.2500 Du        
   3840 ****        12.0000  12.7500   7.5000 Du        
   3841 ****        12.0000  12.7500   7.7500 Du        
   3842 ****        12.0000  12.7500   8.0000 Du        
   3843 ****        12.0000  12.7500   8.2500 Du        
   3844 ****        12.0000  12.7500   8.5000 Du        
   3845 ****        12.0000  12.7500   8.7500 Du        
   3846 ****        12.0000  12.7500   9.0000 Du        
   3847 ****        12.0000  12.7500   9.2500 Du        
   3848 ****        12.0000  13.0000   6.7500 Du        
   3849 ****        12.0000  13.0000   7.0000 Du        
   3850 ****        12.0000  13.0000   7.2500 Du        
   3851 ****        12.0000  13.0000   7.5000 Du        
   3852 ****        12.0000  13.0000   7.7500 Du        
   3853 ****        12.0000  13.0000   8.0000 Du        
   3854 ****        12.0000  13.0000   8.2500 Du        
   3855 ****        12.0000  13.0000   8.5000 Du        
   3856 ****        12.0000  13.0000   8.7500 Du        
   3857 ****        12.0000  13.0000   9.0000 Du        
   3858 ****        12.0000  13.0000   9.2500 Du        
   3859 ****        12.0000  13.2500   6.7500 Du        
   3860 ****        12.0000  13.2500   7.0000 Du        
   3861 ****        12.0000  13.2500   7.2500 Du        
   3862 ****        12.0000  13.2500   7.5000 Du        
   3863 ****        12.0000  13.2500   7.7500 Du        
   3864 ****        12.0000  13.2500   8.0000 Du        
   3865 ****        12.0000  13.2500   8.2500 Du        
   3866 ****        12.0000  13.5000   6.5000 Du        
   3867 ****        12.0000  13.5000   6.7500 Du        
   3868 ****        12.0000  13.5000   7.0000 Du        
   3869 ****        12.0000  13.5000   7.2500 Du        
   3870 ****        12.0000  13.7500   6.5000 Du        
   3871 ****        12.0000  13.7500   6.7500 Du        
   3872 ****        12.0000  13.7500   7.0000 Du        
   3873 ****        12.0000  13.7500   7.2500 Du        
   3874 ****        12.2500  -4.5000  -5.0000 Du        
   3875 ****        12.2500  -4.2500  -5.2500 Du        
   3876 ****        12.2500  -4.2500  -5.0000 Du        
   3877 ****        12.2500  -4.2500  -4.7500 Du        
   3878 ****        12.2500  -4.0000  -5.5000 Du        
   3879 ****        12.2500  -4.0000  -5.2500 Du        
   3880 ****        12.2500  -4.0000  -5.0000 Du        
   3881 ****        12.2500  -4.0000  -4.7500 Du        
   3882 ****        12.2500  -4.0000  -4.5000 Du        
   3883 ****        12.2500  -4.0000  -4.2500 Du        
   3884 ****        12.2500  -4.0000  -4.0000 Du        
   3885 ****        12.2500  -4.0000  -3.7500 Du        
   3886 ****        12.2500  -3.7500  -5.5000 Du        
   3887 ****        12.2500  -3.7500  -5.2500 Du        
   3888 ****        12.2500  -3.7500  -5.0000 Du        
   3889 ****        12.2500  -3.7500  -4.7500 Du        
   3890 ****        12.2500  -3.7500  -4.5000 Du        
   3891 ****        12.2500  -3.7500  -4.2500 Du        
   3892 ****        12.2500  -3.7500  -4.0000 Du        
   3893 ****        12.2500  -3.7500  -3.7500 Du        
   3894 ****        12.2500  -3.5000  -5.7500 Du        
   3895 ****        12.2500  -3.5000  -5.5000 Du        
   3896 ****        12.2500  -3.5000  -5.2500 Du        
   3897 ****        12.2500  -3.5000  -5.0000 Du        
   3898 ****        12.2500  -3.5000  -4.7500 Du        
   3899 ****        12.2500  -3.5000  -4.5000 Du        
   3900 ****        12.2500  -3.5000  -4.2500 Du        
   3901 ****        12.2500  -3.5000  -4.0000 Du        
   3902 ****        12.2500  -3.5000  -3.7500 Du        
   3903 ****        12.2500  -3.5000  -3.5000 Du        
   3904 ****        12.2500  -3.5000  -3.2500 Du        
   3905 ****        12.2500  -3.2500  -5.7500 Du        
   3906 ****        12.2500  -3.2500  -5.5000 Du        
   3907 ****        12.2500  -3.2500  -5.2500 Du        
   3908 ****        12.2500  -3.2500  -5.0000 Du        
   3909 ****        12.2500  -3.2500  -4.7500 Du        
   3910 ****        12.2500  -3.2500  -4.5000 Du        
   3911 ****        12.2500  -3.2500  -4.2500 Du        
   3912 ****        12.2500  -3.2500  -4.0000 Du        
   3913 ****        12.2500  -3.2500  -3.7500 Du        
   3914 ****        12.2500  -3.2500  -3.5000 Du        
   3915 ****        12.2500  -3.2500  -3.2500 Du        
   3916 ****        12.2500  -3.0000  -5.7500 Du        
   3917 ****        12.2500  -3.0000  -5.5000 Du        
   3918 ****        12.2500  -3.0000  -5.2500 Du        
   3919 ****        12.2500  -3.0000  -5.0000 Du        
   3920 ****        12.2500  -3.0000  -4.7500 Du        
   3921 ****        12.2500  -3.0000  -4.5000 Du        
   3922 ****        12.2500  -3.0000  -4.2500 Du        
   3923 ****        12.2500  -3.0000  -4.0000 Du        
   3924 ****        12.2500  -3.0000  -3.7500 Du        
   3925 ****        12.2500  -3.0000  -3.5000 Du        
   3926 ****        12.2500  -2.7500  -5.7500 Du        
   3927 ****        12.2500  -2.7500  -5.5000 Du        
   3928 ****        12.2500  -2.7500  -5.2500 Du        
   3929 ****        12.2500  -2.7500  -5.0000 Du        
   3930 ****        12.2500  -2.7500  -4.7500 Du        
   3931 ****        12.2500  -2.7500  -4.5000 Du        
   3932 ****        12.2500  -2.7500  -4.2500 Du        
   3933 ****        12.2500  -2.7500  -4.0000 Du        
   3934 ****        12.2500  -2.7500  -3.7500 Du        
   3935 ****        12.2500  -2.7500  -3.5000 Du        
   3936 ****        12.2500  -2.5000  -5.7500 Du        
   3937 ****        12.2500  -2.5000  -5.5000 Du        
   3938 ****        12.2500  -2.5000  -5.2500 Du        
   3939 ****        12.2500  -2.5000  -5.0000 Du        
   3940 ****        12.2500  -2.5000  -4.7500 Du        
   3941 ****        12.2500  -2.5000  -4.5000 Du        
   3942 ****        12.2500  -2.5000  -4.2500 Du        
   3943 ****        12.2500  -2.5000  -4.0000 Du        
   3944 ****        12.2500  -2.5000  -3.7500 Du        
   3945 ****        12.2500  -2.5000  -3.5000 Du        
   3946 ****        12.2500  -2.2500  -5.7500 Du        
   3947 ****        12.2500  -2.2500  -5.5000 Du        
   3948 ****        12.2500  -2.2500  -5.2500 Du        
   3949 ****        12.2500  -2.2500  -5.0000 Du        
   3950 ****        12.2500  -2.2500  -4.7500 Du        
   3951 ****        12.2500  -2.2500  -4.5000 Du        
   3952 ****        12.2500  -2.2500  -4.2500 Du        
   3953 ****        12.2500  -2.2500  -4.0000 Du        
   3954 ****        12.2500  -2.2500  -3.7500 Du        
   3955 ****        12.2500  -2.2500  -3.5000 Du        
   3956 ****        12.2500  -2.0000  -5.5000 Du        
   3957 ****        12.2500  -2.0000  -5.2500 Du        
   3958 ****        12.2500  -2.0000  -5.0000 Du        
   3959 ****        12.2500  -2.0000  -4.7500 Du        
   3960 ****        12.2500  -2.0000  -4.5000 Du        
   3961 ****        12.2500  -2.0000  -4.2500 Du        
   3962 ****        12.2500  -2.0000  -4.0000 Du        
   3963 ****        12.2500  -2.0000  -3.7500 Du        
   3964 ****        12.2500  -1.7500   4.0000 Du        
   3965 ****        12.2500  -1.5000   3.7500 Du        
   3966 ****        12.2500  -1.5000   4.0000 Du        
   3967 ****        12.2500  -1.5000   4.2500 Du        
   3968 ****        12.2500  -1.2500   4.0000 Du        
   3969 ****        12.2500   1.5000 -13.0000 Du        
   3970 ****        12.2500   1.5000 -12.7500 Du        
   3971 ****        12.2500   1.7500 -13.2500 Du        
   3972 ****        12.2500   1.7500 -13.0000 Du        
   3973 ****        12.2500   1.7500   8.2500 Du        
   3974 ****        12.2500   2.0000 -13.5000 Du        
   3975 ****        12.2500   2.0000 -13.2500 Du        
   3976 ****        12.2500   2.0000 -13.0000 Du        
   3977 ****        12.2500   2.2500 -13.7500 Du        
   3978 ****        12.2500   2.2500 -13.5000 Du        
   3979 ****        12.2500  11.2500   7.7500 Du        
   3980 ****        12.2500  11.5000   7.5000 Du        
   3981 ****        12.2500  11.5000   7.7500 Du        
   3982 ****        12.2500  11.5000   8.0000 Du        
   3983 ****        12.2500  11.7500   7.5000 Du        
   3984 ****        12.2500  11.7500   7.7500 Du        
   3985 ****        12.2500  11.7500   8.0000 Du        
   3986 ****        12.2500  11.7500   8.2500 Du        
   3987 ****        12.2500  12.0000   7.5000 Du        
   3988 ****        12.2500  12.0000   7.7500 Du        
   3989 ****        12.2500  12.0000   8.0000 Du        
   3990 ****        12.2500  12.0000   8.2500 Du        
   3991 ****        12.2500  12.0000   8.5000 Du        
   3992 ****        12.2500  12.2500   7.5000 Du        
   3993 ****        12.2500  12.2500   7.7500 Du        
   3994 ****        12.2500  12.2500   8.0000 Du        
   3995 ****        12.2500  12.2500   8.2500 Du        
   3996 ****        12.2500  12.2500   8.5000 Du        
   3997 ****        12.2500  12.2500   8.7500 Du        
   3998 ****        12.2500  12.2500   9.0000 Du        
   3999 ****        12.2500  12.5000   7.2500 Du        
   4000 ****        12.2500  12.5000   7.5000 Du        
   4001 ****        12.2500  12.5000   7.7500 Du        
   4002 ****        12.2500  12.5000   8.0000 Du        
   4003 ****        12.2500  12.5000   8.2500 Du        
   4004 ****        12.2500  12.5000   8.5000 Du        
   4005 ****        12.2500  12.5000   8.7500 Du        
   4006 ****        12.2500  12.5000   9.0000 Du        
   4007 ****        12.2500  12.7500   7.2500 Du        
   4008 ****        12.2500  12.7500   7.5000 Du        
   4009 ****        12.2500  12.7500   7.7500 Du        
   4010 ****        12.2500  12.7500   8.0000 Du        
   4011 ****        12.2500  12.7500   8.2500 Du        
   4012 ****        12.2500  12.7500   8.5000 Du        
   4013 ****        12.2500  12.7500   8.7500 Du        
   4014 ****        12.2500  12.7500   9.0000 Du        
   4015 ****        12.2500  12.7500   9.2500 Du        
   4016 ****        12.2500  13.0000   7.0000 Du        
   4017 ****        12.2500  13.0000   7.2500 Du        
   4018 ****        12.2500  13.0000   7.5000 Du        
   4019 ****        12.2500  13.0000   7.7500 Du        
   4020 ****        12.2500  13.0000   8.0000 Du        
   4021 ****        12.2500  13.0000   8.2500 Du        
   4022 ****        12.2500  13.0000   8.5000 Du        
   4023 ****        12.2500  13.0000   8.7500 Du        
   4024 ****        12.2500  13.0000   9.0000 Du        
   4025 ****        12.2500  13.0000   9.2500 Du        
   4026 ****        12.2500  13.2500   6.7500 Du        
   4027 ****        12.2500  13.2500   7.0000 Du        
   4028 ****        12.2500  13.2500   7.2500 Du        
   4029 ****        12.2500  13.2500   7.5000 Du        
   4030 ****        12.2500  13.2500   7.7500 Du        
   4031 ****        12.2500  13.2500   8.0000 Du        
   4032 ****        12.2500  13.2500   8.2500 Du        
   4033 ****        12.2500  13.2500   8.5000 Du        
   4034 ****        12.2500  13.2500   8.7500 Du        
   4035 ****        12.2500  13.2500   9.0000 Du        
   4036 ****        12.2500  13.2500   9.2500 Du        
   4037 ****        12.2500  13.5000   6.7500 Du        
   4038 ****        12.2500  13.5000   7.0000 Du        
   4039 ****        12.2500  13.5000   7.2500 Du        
   4040 ****        12.2500  13.5000   7.5000 Du        
   4041 ****        12.2500  13.5000   7.7500 Du        
   4042 ****        12.2500  13.5000   8.0000 Du        
   4043 ****        12.2500  13.5000   8.2500 Du        
   4044 ****        12.2500  13.7500   6.7500 Du        
   4045 ****        12.2500  13.7500   7.0000 Du        
   4046 ****        12.2500  13.7500   7.2500 Du        
   4047 ****        12.5000  -7.2500 -10.5000 Du        
   4048 ****        12.5000  -7.2500 -10.2500 Du        
   4049 ****        12.5000  -7.0000 -10.7500 Du        
   4050 ****        12.5000  -7.0000 -10.5000 Du        
   4051 ****        12.5000  -7.0000 -10.2500 Du        
   4052 ****        12.5000  -6.7500 -10.5000 Du        
   4053 ****        12.5000  -4.5000  -5.2500 Du        
   4054 ****        12.5000  -4.5000  -5.0000 Du        
   4055 ****        12.5000  -4.5000  -4.7500 Du        
   4056 ****        12.5000  -4.2500  -5.5000 Du        
   4057 ****        12.5000  -4.2500  -5.2500 Du        
   4058 ****        12.5000  -4.2500  -5.0000 Du        
   4059 ****        12.5000  -4.2500  -4.7500 Du        
   4060 ****        12.5000  -4.2500  -4.5000 Du        
   4061 ****        12.5000  -4.2500  -4.2500 Du        
   4062 ****        12.5000  -4.2500  -4.0000 Du        
   4063 ****        12.5000  -4.0000  -5.5000 Du        
   4064 ****        12.5000  -4.0000  -5.2500 Du        
   4065 ****        12.5000  -4.0000  -5.0000 Du        
   4066 ****        12.5000  -4.0000  -4.7500 Du        
   4067 ****        12.5000  -4.0000  -4.5000 Du        
   4068 ****        12.5000  -4.0000  -4.2500 Du        
   4069 ****        12.5000  -4.0000  -4.0000 Du        
   4070 ****        12.5000  -4.0000  -3.7500 Du        
   4071 ****        12.5000  -3.7500  -5.5000 Du        
   4072 ****        12.5000  -3.7500  -5.2500 Du        
   4073 ****        12.5000  -3.7500  -5.0000 Du        
   4074 ****        12.5000  -3.7500  -4.7500 Du        
   4075 ****        12.5000  -3.7500  -4.5000 Du        
   4076 ****        12.5000  -3.7500  -4.2500 Du        
   4077 ****        12.5000  -3.7500  -4.0000 Du        
   4078 ****        12.5000  -3.7500  -3.7500 Du        
   4079 ****        12.5000  -3.5000  -5.5000 Du        
   4080 ****        12.5000  -3.5000  -5.2500 Du        
   4081 ****        12.5000  -3.5000  -5.0000 Du        
   4082 ****        12.5000  -3.5000  -4.7500 Du        
   4083 ****        12.5000  -3.5000  -4.5000 Du        
   4084 ****        12.5000  -3.5000  -4.2500 Du        
   4085 ****        12.5000  -3.5000  -4.0000 Du        
   4086 ****        12.5000  -3.5000  -3.7500 Du        
   4087 ****        12.5000  -3.5000  -3.5000 Du        
   4088 ****        12.5000  -3.2500  -5.5000 Du        
   4089 ****        12.5000  -3.2500  -5.2500 Du        
   4090 ****        12.5000  -3.2500  -5.0000 Du        
   4091 ****        12.5000  -3.2500  -4.7500 Du        
   4092 ****        12.5000  -3.2500  -4.5000 Du        
   4093 ****        12.5000  -3.2500  -4.2500 Du        
   4094 ****        12.5000  -3.2500  -4.0000 Du        
   4095 ****        12.5000  -3.2500  -3.7500 Du        
   4096 ****        12.5000  -3.2500  -3.5000 Du        
   4097 ****        12.5000  -3.0000  -5.7500 Du        
   4098 ****        12.5000  -3.0000  -5.5000 Du        
   4099 ****        12.5000  -3.0000  -5.2500 Du        
   4100 ****        12.5000  -3.0000  -5.0000 Du        
   4101 ****        12.5000  -3.0000  -4.7500 Du        
   4102 ****        12.5000  -3.0000  -4.5000 Du        
   4103 ****        12.5000  -3.0000  -4.2500 Du        
   4104 ****        12.5000  -3.0000  -4.0000 Du        
   4105 ****        12.5000  -3.0000  -3.7500 Du        
   4106 ****        12.5000  -3.0000  -3.5000 Du        
   4107 ****        12.5000  -2.7500  -5.7500 Du        
   4108 ****        12.5000  -2.7500  -5.5000 Du        
   4109 ****        12.5000  -2.7500  -5.2500 Du        
   4110 ****        12.5000  -2.7500  -5.0000 Du        
   4111 ****        12.5000  -2.7500  -4.7500 Du        
   4112 ****        12.5000  -2.7500  -4.5000 Du        
   4113 ****        12.5000  -2.7500  -4.2500 Du        
   4114 ****        12.5000  -2.7500  -4.0000 Du        
   4115 ****        12.5000  -2.7500  -3.7500 Du        
   4116 ****        12.5000  -2.7500  -3.5000 Du        
   4117 ****        12.5000  -2.5000  -5.7500 Du        
   4118 ****        12.5000  -2.5000  -5.5000 Du        
   4119 ****        12.5000  -2.5000  -5.2500 Du        
   4120 ****        12.5000  -2.5000  -5.0000 Du        
   4121 ****        12.5000  -2.5000  -4.7500 Du        
   4122 ****        12.5000  -2.5000  -4.5000 Du        
   4123 ****        12.5000  -2.5000  -4.2500 Du        
   4124 ****        12.5000  -2.5000  -4.0000 Du        
   4125 ****        12.5000  -2.5000  -3.7500 Du        
   4126 ****        12.5000  -2.5000  -3.5000 Du        
   4127 ****        12.5000  -2.2500  -5.7500 Du        
   4128 ****        12.5000  -2.2500  -5.5000 Du        
   4129 ****        12.5000  -2.2500  -5.2500 Du        
   4130 ****        12.5000  -2.2500  -5.0000 Du        
   4131 ****        12.5000  -2.2500  -4.7500 Du        
   4132 ****        12.5000  -2.2500  -4.5000 Du        
   4133 ****        12.5000  -2.2500  -4.2500 Du        
   4134 ****        12.5000  -2.2500  -4.0000 Du        
   4135 ****        12.5000  -2.2500  -3.7500 Du        
   4136 ****        12.5000  -2.2500  -3.5000 Du        
   4137 ****        12.5000  -2.0000  -5.7500 Du        
   4138 ****        12.5000  -2.0000  -5.5000 Du        
   4139 ****        12.5000  -2.0000  -5.2500 Du        
   4140 ****        12.5000  -2.0000  -5.0000 Du        
   4141 ****        12.5000  -2.0000  -4.7500 Du        
   4142 ****        12.5000  -2.0000  -4.5000 Du        
   4143 ****        12.5000  -2.0000  -4.2500 Du        
   4144 ****        12.5000  -2.0000  -4.0000 Du        
   4145 ****        12.5000  -2.0000  -3.7500 Du        
   4146 ****        12.5000  -1.5000   3.7500 Du        
   4147 ****        12.5000  -1.5000   4.0000 Du        
   4148 ****        12.5000  11.2500   7.7500 Du        
   4149 ****        12.5000  11.5000   7.7500 Du        
   4150 ****        12.5000  11.5000   8.0000 Du        
   4151 ****        12.5000  11.7500   7.5000 Du        
   4152 ****        12.5000  11.7500   7.7500 Du        
   4153 ****        12.5000  11.7500   8.0000 Du        
   4154 ****        12.5000  11.7500   8.2500 Du        
   4155 ****        12.5000  12.0000   7.5000 Du        
   4156 ****        12.5000  12.0000   7.7500 Du        
   4157 ****        12.5000  12.0000   8.0000 Du        
   4158 ****        12.5000  12.0000   8.2500 Du        
   4159 ****        12.5000  12.0000   8.5000 Du        
   4160 ****        12.5000  12.2500   7.5000 Du        
   4161 ****        12.5000  12.2500   7.7500 Du        
   4162 ****        12.5000  12.2500   8.0000 Du        
   4163 ****        12.5000  12.2500   8.2500 Du        
   4164 ****        12.5000  12.2500   8.5000 Du        
   4165 ****        12.5000  12.2500   8.7500 Du        
   4166 ****        12.5000  12.2500   9.0000 Du        
   4167 ****        12.5000  12.5000   7.2500 Du        
   4168 ****        12.5000  12.5000   7.5000 Du        
   4169 ****        12.5000  12.5000   7.7500 Du        
   4170 ****        12.5000  12.5000   8.0000 Du        
   4171 ****        12.5000  12.5000   8.2500 Du        
   4172 ****        12.5000  12.5000   8.5000 Du        
   4173 ****        12.5000  12.5000   8.7500 Du        
   4174 ****        12.5000  12.5000   9.0000 Du        
   4175 ****        12.5000  12.7500   7.2500 Du        
   4176 ****        12.5000  12.7500   7.5000 Du        
   4177 ****        12.5000  12.7500   7.7500 Du        
   4178 ****        12.5000  12.7500   8.0000 Du        
   4179 ****        12.5000  12.7500   8.2500 Du        
   4180 ****        12.5000  12.7500   8.5000 Du        
   4181 ****        12.5000  12.7500   8.7500 Du        
   4182 ****        12.5000  12.7500   9.0000 Du        
   4183 ****        12.5000  12.7500   9.2500 Du        
   4184 ****        12.5000  13.0000   7.0000 Du        
   4185 ****        12.5000  13.0000   7.2500 Du        
   4186 ****        12.5000  13.0000   7.5000 Du        
   4187 ****        12.5000  13.0000   7.7500 Du        
   4188 ****        12.5000  13.0000   8.0000 Du        
   4189 ****        12.5000  13.0000   8.2500 Du        
   4190 ****        12.5000  13.0000   8.5000 Du        
   4191 ****        12.5000  13.0000   8.7500 Du        
   4192 ****        12.5000  13.0000   9.0000 Du        
   4193 ****        12.5000  13.0000   9.2500 Du        
   4194 ****        12.5000  13.2500   6.7500 Du        
   4195 ****        12.5000  13.2500   7.0000 Du        
   4196 ****        12.5000  13.2500   7.2500 Du        
   4197 ****        12.5000  13.2500   7.5000 Du        
   4198 ****        12.5000  13.2500   7.7500 Du        
   4199 ****        12.5000  13.2500   8.0000 Du        
   4200 ****        12.5000  13.2500   8.2500 Du        
   4201 ****        12.5000  13.2500   8.5000 Du        
   4202 ****        12.5000  13.2500   8.7500 Du        
   4203 ****        12.5000  13.2500   9.0000 Du        
   4204 ****        12.5000  13.2500   9.2500 Du        
   4205 ****        12.5000  13.2500   9.5000 Du        
   4206 ****        12.5000  13.5000   6.7500 Du        
   4207 ****        12.5000  13.5000   7.0000 Du        
   4208 ****        12.5000  13.5000   7.2500 Du        
   4209 ****        12.5000  13.5000   7.5000 Du        
   4210 ****        12.5000  13.5000   7.7500 Du        
   4211 ****        12.5000  13.5000   8.0000 Du        
   4212 ****        12.5000  13.5000   8.2500 Du        
   4213 ****        12.5000  13.5000   8.5000 Du        
   4214 ****        12.5000  13.5000   8.7500 Du        
   4215 ****        12.5000  13.5000   9.0000 Du        
   4216 ****        12.5000  13.5000   9.2500 Du        
   4217 ****        12.5000  13.7500   6.7500 Du        
   4218 ****        12.5000  13.7500   7.0000 Du        
   4219 ****        12.5000  13.7500   7.2500 Du        
   4220 ****        12.5000  13.7500   7.5000 Du        
   4221 ****        12.5000  13.7500   7.7500 Du        
   4222 ****        12.5000  13.7500   8.0000 Du        
   4223 ****        12.5000  13.7500   9.0000 Du        
   4224 ****        12.5000  13.7500   9.2500 Du        
   4225 ****        12.7500  -7.2500 -10.7500 Du        
   4226 ****        12.7500  -7.2500 -10.5000 Du        
   4227 ****        12.7500  -7.2500 -10.2500 Du        
   4228 ****        12.7500  -7.2500 -10.0000 Du        
   4229 ****        12.7500  -7.0000 -10.7500 Du        
   4230 ****        12.7500  -7.0000 -10.5000 Du        
   4231 ****        12.7500  -7.0000 -10.2500 Du        
   4232 ****        12.7500  -7.0000 -10.0000 Du        
   4233 ****        12.7500  -7.0000  -9.7500 Du        
   4234 ****        12.7500  -7.0000  -9.5000 Du        
   4235 ****        12.7500  -7.0000  -9.2500 Du        
   4236 ****        12.7500  -6.7500 -10.5000 Du        
   4237 ****        12.7500  -6.7500 -10.2500 Du        
   4238 ****        12.7500  -4.5000  -5.2500 Du        
   4239 ****        12.7500  -4.5000  -5.0000 Du        
   4240 ****        12.7500  -4.5000  -4.7500 Du        
   4241 ****        12.7500  -4.5000  -4.5000 Du        
   4242 ****        12.7500  -4.5000  -4.2500 Du        
   4243 ****        12.7500  -4.2500  -5.2500 Du        
   4244 ****        12.7500  -4.2500  -5.0000 Du        
   4245 ****        12.7500  -4.2500  -4.7500 Du        
   4246 ****        12.7500  -4.2500  -4.5000 Du        
   4247 ****        12.7500  -4.2500  -4.2500 Du        
   4248 ****        12.7500  -4.2500  -4.0000 Du        
   4249 ****        12.7500  -4.0000  -5.2500 Du        
   4250 ****        12.7500  -4.0000  -5.0000 Du        
   4251 ****        12.7500  -4.0000  -4.7500 Du        
   4252 ****        12.7500  -4.0000  -4.5000 Du        
   4253 ****        12.7500  -4.0000  -4.2500 Du        
   4254 ****        12.7500  -4.0000  -4.0000 Du        
   4255 ****        12.7500  -4.0000  -3.7500 Du        
   4256 ****        12.7500  -3.7500  -5.2500 Du        
   4257 ****        12.7500  -3.7500  -5.0000 Du        
   4258 ****        12.7500  -3.7500  -4.7500 Du        
   4259 ****        12.7500  -3.7500  -4.5000 Du        
   4260 ****        12.7500  -3.7500  -4.2500 Du        
   4261 ****        12.7500  -3.7500  -4.0000 Du        
   4262 ****        12.7500  -3.7500  -3.7500 Du        
   4263 ****        12.7500  -3.5000  -5.5000 Du        
   4264 ****        12.7500  -3.5000  -5.2500 Du        
   4265 ****        12.7500  -3.5000  -5.0000 Du        
   4266 ****        12.7500  -3.5000  -4.7500 Du        
   4267 ****        12.7500  -3.5000  -4.5000 Du        
   4268 ****        12.7500  -3.5000  -4.2500 Du        
   4269 ****        12.7500  -3.5000  -4.0000 Du        
   4270 ****        12.7500  -3.5000  -3.7500 Du        
   4271 ****        12.7500  -3.2500  -5.5000 Du        
   4272 ****        12.7500  -3.2500  -5.2500 Du        
   4273 ****        12.7500  -3.2500  -5.0000 Du        
   4274 ****        12.7500  -3.2500  -4.7500 Du        
   4275 ****        12.7500  -3.2500  -4.5000 Du        
   4276 ****        12.7500  -3.2500  -4.2500 Du        
   4277 ****        12.7500  -3.2500  -4.0000 Du        
   4278 ****        12.7500  -3.2500  -3.7500 Du        
   4279 ****        12.7500  -3.0000  -5.5000 Du        
   4280 ****        12.7500  -3.0000  -5.2500 Du        
   4281 ****        12.7500  -3.0000  -5.0000 Du        
   4282 ****        12.7500  -3.0000  -4.7500 Du        
   4283 ****        12.7500  -3.0000  -4.5000 Du        
   4284 ****        12.7500  -3.0000  -4.2500 Du        
   4285 ****        12.7500  -3.0000  -4.0000 Du        
   4286 ****        12.7500  -3.0000  -3.7500 Du        
   4287 ****        12.7500  -2.7500  -5.5000 Du        
   4288 ****        12.7500  -2.7500  -5.2500 Du        
   4289 ****        12.7500  -2.7500  -5.0000 Du        
   4290 ****        12.7500  -2.7500  -4.7500 Du        
   4291 ****        12.7500  -2.7500  -4.5000 Du        
   4292 ****        12.7500  -2.7500  -4.2500 Du        
   4293 ****        12.7500  -2.7500  -4.0000 Du        
   4294 ****        12.7500  -2.7500  -3.7500 Du        
   4295 ****        12.7500  -2.5000  -5.7500 Du        
   4296 ****        12.7500  -2.5000  -5.5000 Du        
   4297 ****        12.7500  -2.5000  -5.2500 Du        
   4298 ****        12.7500  -2.5000  -5.0000 Du        
   4299 ****        12.7500  -2.5000  -4.7500 Du        
   4300 ****        12.7500  -2.5000  -4.5000 Du        
   4301 ****        12.7500  -2.5000  -4.2500 Du        
   4302 ****        12.7500  -2.5000  -4.0000 Du        
   4303 ****        12.7500  -2.5000  -3.7500 Du        
   4304 ****        12.7500  -2.2500  -5.7500 Du        
   4305 ****        12.7500  -2.2500  -5.5000 Du        
   4306 ****        12.7500  -2.2500  -5.2500 Du        
   4307 ****        12.7500  -2.2500  -5.0000 Du        
   4308 ****        12.7500  -2.2500  -4.7500 Du        
   4309 ****        12.7500  -2.2500  -4.5000 Du        
   4310 ****        12.7500  -2.2500  -4.2500 Du        
   4311 ****        12.7500  -2.2500  -4.0000 Du        
   4312 ****        12.7500  -2.2500  -3.7500 Du        
   4313 ****        12.7500  -2.0000  -5.7500 Du        
   4314 ****        12.7500  -2.0000  -5.5000 Du        
   4315 ****        12.7500  -2.0000  -5.2500 Du        
   4316 ****        12.7500  -2.0000  -5.0000 Du        
   4317 ****        12.7500  -2.0000  -4.7500 Du        
   4318 ****        12.7500  -2.0000  -4.5000 Du        
   4319 ****        12.7500  -2.0000  -4.2500 Du        
   4320 ****        12.7500  -2.0000  -4.0000 Du        
   4321 ****        12.7500  -2.0000  -3.7500 Du        
   4322 ****        12.7500  11.5000   7.7500 Du        
   4323 ****        12.7500  11.5000   8.0000 Du        
   4324 ****        12.7500  11.7500   7.7500 Du        
   4325 ****        12.7500  11.7500   8.0000 Du        
   4326 ****        12.7500  11.7500   8.2500 Du        
   4327 ****        12.7500  12.0000   7.5000 Du        
   4328 ****        12.7500  12.0000   7.7500 Du        
   4329 ****        12.7500  12.0000   8.0000 Du        
   4330 ****        12.7500  12.0000   8.2500 Du        
   4331 ****        12.7500  12.0000   8.5000 Du        
   4332 ****        12.7500  12.2500   7.5000 Du        
   4333 ****        12.7500  12.2500   7.7500 Du        
   4334 ****        12.7500  12.2500   8.0000 Du        
   4335 ****        12.7500  12.2500   8.2500 Du        
   4336 ****        12.7500  12.2500   8.5000 Du        
   4337 ****        12.7500  12.2500   8.7500 Du        
   4338 ****        12.7500  12.2500   9.0000 Du        
   4339 ****        12.7500  12.5000   7.5000 Du        
   4340 ****        12.7500  12.5000   7.7500 Du        
   4341 ****        12.7500  12.5000   8.0000 Du        
   4342 ****        12.7500  12.5000   8.2500 Du        
   4343 ****        12.7500  12.5000   8.5000 Du        
   4344 ****        12.7500  12.5000   8.7500 Du        
   4345 ****        12.7500  12.5000   9.0000 Du        
   4346 ****        12.7500  12.7500   7.2500 Du        
   4347 ****        12.7500  12.7500   7.5000 Du        
   4348 ****        12.7500  12.7500   7.7500 Du        
   4349 ****        12.7500  12.7500   8.0000 Du        
   4350 ****        12.7500  12.7500   8.2500 Du        
   4351 ****        12.7500  12.7500   8.5000 Du        
   4352 ****        12.7500  12.7500   8.7500 Du        
   4353 ****        12.7500  12.7500   9.0000 Du        
   4354 ****        12.7500  12.7500   9.2500 Du        
   4355 ****        12.7500  13.0000   7.0000 Du        
   4356 ****        12.7500  13.0000   7.2500 Du        
   4357 ****        12.7500  13.0000   7.5000 Du        
   4358 ****        12.7500  13.0000   7.7500 Du        
   4359 ****        12.7500  13.0000   8.0000 Du        
   4360 ****        12.7500  13.0000   8.2500 Du        
   4361 ****        12.7500  13.0000   8.5000 Du        
   4362 ****        12.7500  13.0000   8.7500 Du        
   4363 ****        12.7500  13.0000   9.0000 Du        
   4364 ****        12.7500  13.0000   9.2500 Du        
   4365 ****        12.7500  13.2500   7.0000 Du        
   4366 ****        12.7500  13.2500   7.2500 Du        
   4367 ****        12.7500  13.2500   7.5000 Du        
   4368 ****        12.7500  13.2500   7.7500 Du        
   4369 ****        12.7500  13.2500   8.0000 Du        
   4370 ****        12.7500  13.2500   8.2500 Du        
   4371 ****        12.7500  13.2500   8.5000 Du        
   4372 ****        12.7500  13.2500   8.7500 Du        
   4373 ****        12.7500  13.2500   9.0000 Du        
   4374 ****        12.7500  13.2500   9.2500 Du        
   4375 ****        12.7500  13.5000   6.7500 Du        
   4376 ****        12.7500  13.5000   7.0000 Du        
   4377 ****        12.7500  13.5000   7.2500 Du        
   4378 ****        12.7500  13.5000   7.5000 Du        
   4379 ****        12.7500  13.5000   7.7500 Du        
   4380 ****        12.7500  13.5000   8.0000 Du        
   4381 ****        12.7500  13.5000   8.2500 Du        
   4382 ****        12.7500  13.5000   8.5000 Du        
   4383 ****        12.7500  13.5000   8.7500 Du        
   4384 ****        12.7500  13.5000   9.0000 Du        
   4385 ****        12.7500  13.5000   9.2500 Du        
   4386 ****        12.7500  13.7500   6.7500 Du        
   4387 ****        12.7500  13.7500   7.0000 Du        
   4388 ****        12.7500  13.7500   7.2500 Du        
   4389 ****        12.7500  13.7500   7.5000 Du        
   4390 ****        12.7500  13.7500   7.7500 Du        
   4391 ****        12.7500  13.7500   8.0000 Du        
   4392 ****        12.7500  13.7500   8.2500 Du        
   4393 ****        12.7500  13.7500   8.5000 Du        
   4394 ****        12.7500  13.7500   8.7500 Du        
   4395 ****        12.7500  13.7500   9.0000 Du        
   4396 ****        12.7500  13.7500   9.2500 Du        
   4397 ****        12.7500  13.7500   9.5000 Du        
   4398 ****        12.7500  13.7500   9.7500 Du        
   4399 ****        12.7500  14.0000   9.0000 Du        
   4400 ****        12.7500  14.0000   9.2500 Du        
   4401 ****        12.7500  14.0000   9.5000 Du        
   4402 ****        12.7500  14.0000   9.7500 Du        
   4403 ****        13.0000  -7.2500 -10.7500 Du        
   4404 ****        13.0000  -7.2500 -10.5000 Du        
   4405 ****        13.0000  -7.2500 -10.2500 Du        
   4406 ****        13.0000  -7.2500 -10.0000 Du        
   4407 ****        13.0000  -7.2500  -9.7500 Du        
   4408 ****        13.0000  -7.2500  -9.2500 Du        
   4409 ****        13.0000  -7.2500  -8.5000 Du        
   4410 ****        13.0000  -7.0000 -10.7500 Du        
   4411 ****        13.0000  -7.0000 -10.5000 Du        
   4412 ****        13.0000  -7.0000 -10.2500 Du        
   4413 ****        13.0000  -7.0000 -10.0000 Du        
   4414 ****        13.0000  -7.0000  -9.7500 Du        
   4415 ****        13.0000  -7.0000  -9.5000 Du        
   4416 ****        13.0000  -7.0000  -9.2500 Du        
   4417 ****        13.0000  -7.0000  -9.0000 Du        
   4418 ****        13.0000  -7.0000  -8.5000 Du        
   4419 ****        13.0000  -7.0000  -8.2500 Du        
   4420 ****        13.0000  -6.7500 -10.2500 Du        
   4421 ****        13.0000  -6.7500 -10.0000 Du        
   4422 ****        13.0000  -4.5000  -5.0000 Du        
   4423 ****        13.0000  -4.5000  -4.7500 Du        
   4424 ****        13.0000  -4.2500  -5.0000 Du        
   4425 ****        13.0000  -4.2500  -4.7500 Du        
   4426 ****        13.0000  -4.2500  -4.5000 Du        
   4427 ****        13.0000  -4.0000  -5.0000 Du        
   4428 ****        13.0000  -4.0000  -4.7500 Du        
   4429 ****        13.0000  -4.0000  -4.5000 Du        
   4430 ****        13.0000  -4.0000  -4.2500 Du        
   4431 ****        13.0000  -3.7500  -5.0000 Du        
   4432 ****        13.0000  -3.7500  -4.7500 Du        
   4433 ****        13.0000  -3.7500  -4.5000 Du        
   4434 ****        13.0000  -3.5000  -5.2500 Du        
   4435 ****        13.0000  -3.5000  -5.0000 Du        
   4436 ****        13.0000  -3.5000  -4.7500 Du        
   4437 ****        13.0000  -3.5000  -4.5000 Du        
   4438 ****        13.0000  -3.5000  -4.2500 Du        
   4439 ****        13.0000  -3.2500  -5.2500 Du        
   4440 ****        13.0000  -3.2500  -5.0000 Du        
   4441 ****        13.0000  -3.2500  -4.7500 Du        
   4442 ****        13.0000  -3.2500  -4.5000 Du        
   4443 ****        13.0000  -3.2500  -4.2500 Du        
   4444 ****        13.0000  -3.0000  -5.2500 Du        
   4445 ****        13.0000  -3.0000  -5.0000 Du        
   4446 ****        13.0000  -3.0000  -4.7500 Du        
   4447 ****        13.0000  -3.0000  -4.5000 Du        
   4448 ****        13.0000  -3.0000  -4.2500 Du        
   4449 ****        13.0000  -2.7500  -5.5000 Du        
   4450 ****        13.0000  -2.7500  -5.2500 Du        
   4451 ****        13.0000  -2.7500  -5.0000 Du        
   4452 ****        13.0000  -2.7500  -4.7500 Du        
   4453 ****        13.0000  -2.7500  -4.5000 Du        
   4454 ****        13.0000  -2.7500  -4.2500 Du        
   4455 ****        13.0000  -2.5000  -5.5000 Du        
   4456 ****        13.0000  -2.5000  -5.2500 Du        
   4457 ****        13.0000  -2.5000  -5.0000 Du        
   4458 ****        13.0000  -2.5000  -4.7500 Du        
   4459 ****        13.0000  -2.5000  -4.5000 Du        
   4460 ****        13.0000  -2.5000  -4.2500 Du        
   4461 ****        13.0000  -2.2500  -5.5000 Du        
   4462 ****        13.0000  -2.2500  -5.2500 Du        
   4463 ****        13.0000  -2.2500  -5.0000 Du        
   4464 ****        13.0000  -2.2500  -4.7500 Du        
   4465 ****        13.0000  -2.2500  -4.5000 Du        
   4466 ****        13.0000  -2.2500  -4.2500 Du        
   4467 ****        13.0000  -2.2500  -4.0000 Du        
   4468 ****        13.0000  -2.0000  -5.5000 Du        
   4469 ****        13.0000  -2.0000  -5.2500 Du        
   4470 ****        13.0000  -2.0000  -5.0000 Du        
   4471 ****        13.0000  -2.0000  -4.7500 Du        
   4472 ****        13.0000  -2.0000  -4.5000 Du        
   4473 ****        13.0000  -2.0000  -4.2500 Du        
   4474 ****        13.0000  -2.0000  -4.0000 Du        
   4475 ****        13.0000  11.5000   7.7500 Du        
   4476 ****        13.0000  11.5000   8.0000 Du        
   4477 ****        13.0000  11.7500   7.7500 Du        
   4478 ****        13.0000  11.7500   8.0000 Du        
   4479 ****        13.0000  11.7500   8.2500 Du        
   4480 ****        13.0000  12.0000   7.7500 Du        
   4481 ****        13.0000  12.0000   8.0000 Du        
   4482 ****        13.0000  12.0000   8.2500 Du        
   4483 ****        13.0000  12.0000   8.5000 Du        
   4484 ****        13.0000  12.2500   7.5000 Du        
   4485 ****        13.0000  12.2500   7.7500 Du        
   4486 ****        13.0000  12.2500   8.0000 Du        
   4487 ****        13.0000  12.2500   8.2500 Du        
   4488 ****        13.0000  12.2500   8.5000 Du        
   4489 ****        13.0000  12.2500   8.7500 Du        
   4490 ****        13.0000  12.5000   7.5000 Du        
   4491 ****        13.0000  12.5000   7.7500 Du        
   4492 ****        13.0000  12.5000   8.0000 Du        
   4493 ****        13.0000  12.5000   8.2500 Du        
   4494 ****        13.0000  12.5000   8.5000 Du        
   4495 ****        13.0000  12.5000   8.7500 Du        
   4496 ****        13.0000  12.7500   7.2500 Du        
   4497 ****        13.0000  12.7500   7.5000 Du        
   4498 ****        13.0000  12.7500   7.7500 Du        
   4499 ****        13.0000  12.7500   8.0000 Du        
   4500 ****        13.0000  12.7500   8.2500 Du        
   4501 ****        13.0000  12.7500   8.5000 Du        
   4502 ****        13.0000  12.7500   8.7500 Du        
   4503 ****        13.0000  13.0000   7.0000 Du        
   4504 ****        13.0000  13.0000   7.2500 Du        
   4505 ****        13.0000  13.0000   7.5000 Du        
   4506 ****        13.0000  13.0000   7.7500 Du        
   4507 ****        13.0000  13.0000   8.0000 Du        
   4508 ****        13.0000  13.0000   8.2500 Du        
   4509 ****        13.0000  13.0000   8.5000 Du        
   4510 ****        13.0000  13.0000   8.7500 Du        
   4511 ****        13.0000  13.0000   9.0000 Du        
   4512 ****        13.0000  13.2500   7.0000 Du        
   4513 ****        13.0000  13.2500   7.2500 Du        
   4514 ****        13.0000  13.2500   7.5000 Du        
   4515 ****        13.0000  13.2500   7.7500 Du        
   4516 ****        13.0000  13.2500   8.0000 Du        
   4517 ****        13.0000  13.2500   8.2500 Du        
   4518 ****        13.0000  13.2500   8.5000 Du        
   4519 ****        13.0000  13.2500   8.7500 Du        
   4520 ****        13.0000  13.2500   9.0000 Du        
   4521 ****        13.0000  13.5000   6.7500 Du        
   4522 ****        13.0000  13.5000   7.0000 Du        
   4523 ****        13.0000  13.5000   7.2500 Du        
   4524 ****        13.0000  13.5000   7.5000 Du        
   4525 ****        13.0000  13.5000   7.7500 Du        
   4526 ****        13.0000  13.5000   8.0000 Du        
   4527 ****        13.0000  13.5000   8.2500 Du        
   4528 ****        13.0000  13.5000   8.5000 Du        
   4529 ****        13.0000  13.5000   8.7500 Du        
   4530 ****        13.0000  13.5000   9.0000 Du        
   4531 ****        13.0000  13.5000   9.2500 Du        
   4532 ****        13.0000  13.7500   6.7500 Du        
   4533 ****        13.0000  13.7500   7.0000 Du        
   4534 ****        13.0000  13.7500   7.2500 Du        
   4535 ****        13.0000  13.7500   7.5000 Du        
   4536 ****        13.0000  13.7500   7.7500 Du        
   4537 ****        13.0000  13.7500   8.0000 Du        
   4538 ****        13.0000  13.7500   8.2500 Du        
   4539 ****        13.0000  13.7500   8.5000 Du        
   4540 ****        13.0000  13.7500   8.7500 Du        
   4541 ****        13.0000  13.7500   9.0000 Du        
   4542 ****        13.0000  13.7500   9.2500 Du        
   4543 ****        13.0000  13.7500   9.5000 Du        
   4544 ****        13.0000  14.0000   9.0000 Du        
   4545 ****        13.0000  14.0000   9.2500 Du        
   4546 ****        13.0000  14.0000   9.5000 Du        
   4547 ****        13.0000  14.0000   9.7500 Du        
   4548 ****        13.2500  -7.2500 -10.0000 Du        
   4549 ****        13.2500  -7.2500  -9.2500 Du        
   4550 ****        13.2500  -7.2500  -9.0000 Du        
   4551 ****        13.2500  -7.2500  -8.7500 Du        
   4552 ****        13.2500  -7.2500  -8.5000 Du        
   4553 ****        13.2500  -7.2500  -8.2500 Du        
   4554 ****        13.2500  -7.2500  -8.0000 Du        
   4555 ****        13.2500  -7.2500  -7.7500 Du        
   4556 ****        13.2500  -7.0000 -10.5000 Du        
   4557 ****        13.2500  -7.0000 -10.2500 Du        
   4558 ****        13.2500  -7.0000 -10.0000 Du        
   4559 ****        13.2500  -7.0000  -9.7500 Du        
   4560 ****        13.2500  -7.0000  -9.5000 Du        
   4561 ****        13.2500  -7.0000  -9.2500 Du        
   4562 ****        13.2500  -7.0000  -9.0000 Du        
   4563 ****        13.2500  -7.0000  -8.7500 Du        
   4564 ****        13.2500  -7.0000  -8.5000 Du        
   4565 ****        13.2500  -7.0000  -8.2500 Du        
   4566 ****        13.2500  -7.0000  -8.0000 Du        
   4567 ****        13.2500  -7.0000  -7.7500 Du        
   4568 ****        13.2500  -6.7500 -10.2500 Du        
   4569 ****        13.2500  -6.7500 -10.0000 Du        
   4570 ****        13.2500  -6.7500  -8.5000 Du        
   4571 ****        13.2500  -6.7500  -8.2500 Du        
   4572 ****        13.2500  -6.7500  -8.0000 Du        
   4573 ****        13.2500  -6.7500  -7.7500 Du        
   4574 ****        13.2500  -2.2500  -5.0000 Du        
   4575 ****        13.2500  11.5000   7.7500 Du        
   4576 ****        13.2500  11.5000   8.0000 Du        
   4577 ****        13.2500  11.7500   7.7500 Du        
   4578 ****        13.2500  11.7500   8.0000 Du        
   4579 ****        13.2500  11.7500   8.2500 Du        
   4580 ****        13.2500  12.0000   7.7500 Du        
   4581 ****        13.2500  12.0000   8.0000 Du        
   4582 ****        13.2500  12.0000   8.2500 Du        
   4583 ****        13.2500  12.2500   7.7500 Du        
   4584 ****        13.2500  12.2500   8.0000 Du        
   4585 ****        13.2500  12.2500   8.2500 Du        
   4586 ****        13.2500  12.2500   8.5000 Du        
   4587 ****        13.2500  12.5000   7.5000 Du        
   4588 ****        13.2500  12.5000   7.7500 Du        
   4589 ****        13.2500  12.5000   8.0000 Du        
   4590 ****        13.2500  12.5000   8.2500 Du        
   4591 ****        13.2500  12.7500   7.2500 Du        
   4592 ****        13.2500  12.7500   7.5000 Du        
   4593 ****        13.2500  12.7500   7.7500 Du        
   4594 ****        13.2500  12.7500   8.0000 Du        
   4595 ****        13.2500  12.7500   8.2500 Du        
   4596 ****        13.2500  12.7500   8.5000 Du        
   4597 ****        13.2500  13.0000   7.2500 Du        
   4598 ****        13.2500  13.0000   7.5000 Du        
   4599 ****        13.2500  13.0000   7.7500 Du        
   4600 ****        13.2500  13.0000   8.0000 Du        
   4601 ****        13.2500  13.0000   8.2500 Du        
   4602 ****        13.2500  13.0000   8.5000 Du        
   4603 ****        13.2500  13.2500   7.0000 Du        
   4604 ****        13.2500  13.2500   7.2500 Du        
   4605 ****        13.2500  13.2500   7.5000 Du        
   4606 ****        13.2500  13.2500   7.7500 Du        
   4607 ****        13.2500  13.2500   8.0000 Du        
   4608 ****        13.2500  13.2500   8.2500 Du        
   4609 ****        13.2500  13.2500   8.5000 Du        
   4610 ****        13.2500  13.5000   6.7500 Du        
   4611 ****        13.2500  13.5000   7.0000 Du        
   4612 ****        13.2500  13.5000   7.2500 Du        
   4613 ****        13.2500  13.5000   7.5000 Du        
   4614 ****        13.2500  13.5000   7.7500 Du        
   4615 ****        13.2500  13.5000   8.0000 Du        
   4616 ****        13.2500  13.5000   8.2500 Du        
   4617 ****        13.2500  13.5000   8.5000 Du        
   4618 ****        13.2500  13.5000   8.7500 Du        
   4619 ****        13.2500  13.7500   7.0000 Du        
   4620 ****        13.2500  13.7500   7.2500 Du        
   4621 ****        13.2500  13.7500   7.5000 Du        
   4622 ****        13.2500  13.7500   7.7500 Du        
   4623 ****        13.2500  13.7500   8.0000 Du        
   4624 ****        13.2500  13.7500   8.2500 Du        
   4625 ****        13.2500  13.7500   8.5000 Du        
   4626 ****        13.2500  13.7500   8.7500 Du        
   4627 ****        13.2500  13.7500   9.0000 Du        
   4628 ****        13.2500  14.0000   9.0000 Du        
   4629 ****        13.2500  14.0000   9.2500 Du        
   4630 ****        13.5000 -10.5000  -6.0000 Du        
   4631 ****        13.5000 -10.5000  -5.7500 Du        
   4632 ****        13.5000 -10.5000  -5.5000 Du        
   4633 ****        13.5000 -10.2500  -6.2500 Du        
   4634 ****        13.5000 -10.2500  -6.0000 Du        
   4635 ****        13.5000 -10.2500  -5.7500 Du        
   4636 ****        13.5000 -10.2500  -5.5000 Du        
   4637 ****        13.5000 -10.0000  -6.0000 Du        
   4638 ****        13.5000 -10.0000  -5.7500 Du        
   4639 ****        13.5000 -10.0000  -5.5000 Du        
   4640 ****        13.5000  -9.2500 -13.0000 Du        
   4641 ****        13.5000  -9.2500 -12.7500 Du        
   4642 ****        13.5000  -9.2500 -12.5000 Du        
   4643 ****        13.5000  -9.0000 -12.7500 Du        
   4644 ****        13.5000  -9.0000 -12.5000 Du        
   4645 ****        13.5000  -8.7500 -13.0000 Du        
   4646 ****        13.5000  -8.7500 -12.7500 Du        
   4647 ****        13.5000  -7.5000  -8.0000 Du        
   4648 ****        13.5000  -7.2500  -9.0000 Du        
   4649 ****        13.5000  -7.2500  -8.7500 Du        
   4650 ****        13.5000  -7.2500  -8.5000 Du        
   4651 ****        13.5000  -7.2500  -8.2500 Du        
   4652 ****        13.5000  -7.2500  -8.0000 Du        
   4653 ****        13.5000  -7.2500  -7.7500 Du        
   4654 ****        13.5000  -7.2500  -7.5000 Du        
   4655 ****        13.5000  -7.2500  -7.2500 Du        
   4656 ****        13.5000  -7.0000 -10.2500 Du        
   4657 ****        13.5000  -7.0000 -10.0000 Du        
   4658 ****        13.5000  -7.0000  -9.7500 Du        
   4659 ****        13.5000  -7.0000  -9.5000 Du        
   4660 ****        13.5000  -7.0000  -9.2500 Du        
   4661 ****        13.5000  -7.0000  -9.0000 Du        
   4662 ****        13.5000  -7.0000  -8.7500 Du        
   4663 ****        13.5000  -7.0000  -8.5000 Du        
   4664 ****        13.5000  -7.0000  -8.2500 Du        
   4665 ****        13.5000  -7.0000  -8.0000 Du        
   4666 ****        13.5000  -7.0000  -7.7500 Du        
   4667 ****        13.5000  -7.0000  -7.5000 Du        
   4668 ****        13.5000  -7.0000  -7.2500 Du        
   4669 ****        13.5000  -6.7500 -10.0000 Du        
   4670 ****        13.5000  -6.7500  -9.7500 Du        
   4671 ****        13.5000  -6.7500  -9.2500 Du        
   4672 ****        13.5000  -6.7500  -9.0000 Du        
   4673 ****        13.5000  -6.7500  -8.7500 Du        
   4674 ****        13.5000  -6.7500  -8.5000 Du        
   4675 ****        13.5000  -6.7500  -8.2500 Du        
   4676 ****        13.5000  -6.7500  -8.0000 Du        
   4677 ****        13.5000  -6.7500  -7.7500 Du        
   4678 ****        13.5000  -6.5000  -7.2500 Du        
   4679 ****        13.5000  -6.5000  -7.0000 Du        
   4680 ****        13.5000  -6.5000  -6.7500 Du        
   4681 ****        13.5000   3.2500   9.7500 Du        
   4682 ****        13.5000   3.2500  10.0000 Du        
   4683 ****        13.5000  11.7500   7.7500 Du        
   4684 ****        13.5000  11.7500   8.0000 Du        
   4685 ****        13.5000  12.0000   7.7500 Du        
   4686 ****        13.5000  12.0000   8.0000 Du        
   4687 ****        13.5000  12.0000   8.2500 Du        
   4688 ****        13.5000  12.2500   7.7500 Du        
   4689 ****        13.5000  12.2500   8.0000 Du        
   4690 ****        13.5000  12.2500   8.2500 Du        
   4691 ****        13.5000  12.5000   7.5000 Du        
   4692 ****        13.5000  12.5000   7.7500 Du        
   4693 ****        13.5000  12.5000   8.0000 Du        
   4694 ****        13.5000  12.5000   8.2500 Du        
   4695 ****        13.5000  12.7500   7.5000 Du        
   4696 ****        13.5000  12.7500   7.7500 Du        
   4697 ****        13.5000  12.7500   8.0000 Du        
   4698 ****        13.5000  12.7500   8.2500 Du        
   4699 ****        13.5000  13.0000   7.2500 Du        
   4700 ****        13.5000  13.0000   7.5000 Du        
   4701 ****        13.5000  13.0000   7.7500 Du        
   4702 ****        13.5000  13.0000   8.0000 Du        
   4703 ****        13.5000  13.0000   8.2500 Du        
   4704 ****        13.5000  13.2500   7.0000 Du        
   4705 ****        13.5000  13.2500   7.2500 Du        
   4706 ****        13.5000  13.2500   7.5000 Du        
   4707 ****        13.5000  13.2500   7.7500 Du        
   4708 ****        13.5000  13.2500   8.0000 Du        
   4709 ****        13.5000  13.2500   8.2500 Du        
   4710 ****        13.5000  13.5000   7.0000 Du        
   4711 ****        13.5000  13.5000   7.2500 Du        
   4712 ****        13.5000  13.5000   7.5000 Du        
   4713 ****        13.5000  13.5000   7.7500 Du        
   4714 ****        13.5000  13.5000   8.0000 Du        
   4715 ****        13.5000  13.5000   8.2500 Du        
   4716 ****        13.5000  13.7500   8.0000 Du        
   4717 ****        13.5000  13.7500   8.2500 Du        
   4718 ****        13.5000  15.7500  10.5000 Du        
   4719 ****        13.5000  16.0000  10.7500 Du        
   4720 ****        13.5000  16.0000  11.0000 Du        
   4721 ****        13.5000  16.2500  10.7500 Du        
   4722 ****        13.5000  16.2500  11.0000 Du        
   4723 ****        13.5000  16.5000  11.0000 Du        
   4724 ****        13.5000  16.5000  11.2500 Du        
   4725 ****        13.5000  16.7500  11.0000 Du        
   4726 ****        13.5000  16.7500  11.2500 Du        
   4727 ****        13.7500 -10.5000  -6.0000 Du        
   4728 ****        13.7500 -10.5000  -5.7500 Du        
   4729 ****        13.7500 -10.5000  -5.5000 Du        
   4730 ****        13.7500 -10.5000  -5.2500 Du        
   4731 ****        13.7500 -10.5000  -5.0000 Du        
   4732 ****        13.7500 -10.2500  -6.0000 Du        
   4733 ****        13.7500 -10.2500  -5.7500 Du        
   4734 ****        13.7500 -10.2500  -5.5000 Du        
   4735 ****        13.7500 -10.2500  -5.2500 Du        
   4736 ****        13.7500 -10.2500  -5.0000 Du        
   4737 ****        13.7500 -10.0000  -6.2500 Du        
   4738 ****        13.7500 -10.0000  -6.0000 Du        
   4739 ****        13.7500 -10.0000  -5.7500 Du        
   4740 ****        13.7500 -10.0000  -5.5000 Du        
   4741 ****        13.7500 -10.0000  -5.2500 Du        
   4742 ****        13.7500  -9.7500  -6.0000 Du        
   4743 ****        13.7500  -9.7500  -5.7500 Du        
   4744 ****        13.7500  -9.7500  -5.5000 Du        
   4745 ****        13.7500  -9.2500 -13.0000 Du        
   4746 ****        13.7500  -9.2500 -12.7500 Du        
   4747 ****        13.7500  -9.0000 -13.0000 Du        
   4748 ****        13.7500  -9.0000 -12.7500 Du        
   4749 ****        13.7500  -8.7500 -13.5000 Du        
   4750 ****        13.7500  -8.7500 -13.2500 Du        
   4751 ****        13.7500  -8.7500 -13.0000 Du        
   4752 ****        13.7500  -8.7500 -12.7500 Du        
   4753 ****        13.7500  -7.5000  -8.0000 Du        
   4754 ****        13.7500  -7.5000  -7.7500 Du        
   4755 ****        13.7500  -7.5000  -7.5000 Du        
   4756 ****        13.7500  -7.5000  -7.2500 Du        
   4757 ****        13.7500  -7.2500  -8.7500 Du        
   4758 ****        13.7500  -7.2500  -8.5000 Du        
   4759 ****        13.7500  -7.2500  -8.2500 Du        
   4760 ****        13.7500  -7.2500  -8.0000 Du        
   4761 ****        13.7500  -7.2500  -7.7500 Du        
   4762 ****        13.7500  -7.2500  -7.5000 Du        
   4763 ****        13.7500  -7.2500  -7.2500 Du        
   4764 ****        13.7500  -7.2500  -7.0000 Du        
   4765 ****        13.7500  -7.0000 -10.0000 Du        
   4766 ****        13.7500  -7.0000  -9.7500 Du        
   4767 ****        13.7500  -7.0000  -9.5000 Du        
   4768 ****        13.7500  -7.0000  -9.2500 Du        
   4769 ****        13.7500  -7.0000  -9.0000 Du        
   4770 ****        13.7500  -7.0000  -8.7500 Du        
   4771 ****        13.7500  -7.0000  -8.5000 Du        
   4772 ****        13.7500  -7.0000  -8.2500 Du        
   4773 ****        13.7500  -7.0000  -8.0000 Du        
   4774 ****        13.7500  -7.0000  -7.7500 Du        
   4775 ****        13.7500  -7.0000  -7.5000 Du        
   4776 ****        13.7500  -7.0000  -7.2500 Du        
   4777 ****        13.7500  -7.0000  -7.0000 Du        
   4778 ****        13.7500  -6.7500  -9.2500 Du        
   4779 ****        13.7500  -6.7500  -9.0000 Du        
   4780 ****        13.7500  -6.7500  -8.7500 Du        
   4781 ****        13.7500  -6.7500  -8.5000 Du        
   4782 ****        13.7500  -6.7500  -8.2500 Du        
   4783 ****        13.7500  -6.7500  -8.0000 Du        
   4784 ****        13.7500  -6.7500  -7.7500 Du        
   4785 ****        13.7500  -6.7500  -7.5000 Du        
   4786 ****        13.7500  -6.7500  -7.2500 Du        
   4787 ****        13.7500  -6.7500  -7.0000 Du        
   4788 ****        13.7500  -6.7500  -6.7500 Du        
   4789 ****        13.7500  -6.5000  -7.5000 Du        
   4790 ****        13.7500  -6.5000  -7.2500 Du        
   4791 ****        13.7500  -6.5000  -7.0000 Du        
   4792 ****        13.7500  -6.5000  -6.7500 Du        
   4793 ****        13.7500  -6.5000  -6.5000 Du        
   4794 ****        13.7500   2.5000   8.2500 Du        
   4795 ****        13.7500   2.7500   9.0000 Du        
   4796 ****        13.7500   2.7500   9.2500 Du        
   4797 ****        13.7500   2.7500   9.5000 Du        
   4798 ****        13.7500   3.0000   9.0000 Du        
   4799 ****        13.7500   3.0000   9.2500 Du        
   4800 ****        13.7500   3.0000   9.5000 Du        
   4801 ****        13.7500   3.0000   9.7500 Du        
   4802 ****        13.7500   3.0000  10.0000 Du        
   4803 ****        13.7500   3.2500   9.2500 Du        
   4804 ****        13.7500   3.2500   9.5000 Du        
   4805 ****        13.7500   3.2500   9.7500 Du        
   4806 ****        13.7500   3.2500  10.0000 Du        
   4807 ****        13.7500   3.5000   9.5000 Du        
   4808 ****        13.7500   3.5000   9.7500 Du        
   4809 ****        13.7500   3.5000  10.0000 Du        
   4810 ****        13.7500   3.5000  10.2500 Du        
   4811 ****        13.7500   3.7500   9.7500 Du        
   4812 ****        13.7500   3.7500  10.0000 Du        
   4813 ****        13.7500   3.7500  10.2500 Du        
   4814 ****        13.7500   4.0000  10.0000 Du        
   4815 ****        13.7500   4.0000  10.2500 Du        
   4816 ****        13.7500   4.7500  11.2500 Du        
   4817 ****        13.7500   4.7500  11.5000 Du        
   4818 ****        13.7500   4.7500  11.7500 Du        
   4819 ****        13.7500   5.0000  11.2500 Du        
   4820 ****        13.7500   5.0000  11.5000 Du        
   4821 ****        13.7500   5.0000  11.7500 Du        
   4822 ****        13.7500   5.0000  12.0000 Du        
   4823 ****        13.7500   5.2500  11.7500 Du        
   4824 ****        13.7500   5.2500  12.0000 Du        
   4825 ****        13.7500  12.2500   7.7500 Du        
   4826 ****        13.7500  15.5000  10.2500 Du        
   4827 ****        13.7500  15.7500  10.2500 Du        
   4828 ****        13.7500  15.7500  10.5000 Du        
   4829 ****        13.7500  16.0000  10.5000 Du        
   4830 ****        13.7500  16.0000  10.7500 Du        
   4831 ****        13.7500  16.0000  11.0000 Du        
   4832 ****        13.7500  16.2500  10.5000 Du        
   4833 ****        13.7500  16.2500  10.7500 Du        
   4834 ****        13.7500  16.2500  11.0000 Du        
   4835 ****        13.7500  16.2500  11.2500 Du        
   4836 ****        13.7500  16.5000  10.7500 Du        
   4837 ****        13.7500  16.5000  11.0000 Du        
   4838 ****        13.7500  16.5000  11.2500 Du        
   4839 ****        13.7500  16.5000  11.5000 Du        
   4840 ****        13.7500  16.7500  10.7500 Du        
   4841 ****        13.7500  16.7500  11.0000 Du        
   4842 ****        13.7500  16.7500  11.2500 Du        
   4843 ****        13.7500  16.7500  11.5000 Du        
   4844 ****        13.7500  17.0000  10.7500 Du        
   4845 ****        13.7500  17.0000  11.0000 Du        
   4846 ****        13.7500  17.0000  11.2500 Du        
   4847 ****        13.7500  17.0000  11.5000 Du        
   4848 ****        13.7500  17.2500  11.0000 Du        
   4849 ****        13.7500  17.2500  11.2500 Du        
   4850 ****        13.7500  17.5000  11.2500 Du        
   4851 ****        14.0000 -10.7500  -6.0000 Du        
   4852 ****        14.0000 -10.7500  -5.7500 Du        
   4853 ****        14.0000 -10.7500  -5.5000 Du        
   4854 ****        14.0000 -10.7500  -5.2500 Du        
   4855 ****        14.0000 -10.7500  -5.0000 Du        
   4856 ****        14.0000 -10.7500  -4.7500 Du        
   4857 ****        14.0000 -10.7500  -4.5000 Du        
   4858 ****        14.0000 -10.5000  -6.0000 Du        
   4859 ****        14.0000 -10.5000  -5.7500 Du        
   4860 ****        14.0000 -10.5000  -5.5000 Du        
   4861 ****        14.0000 -10.5000  -5.2500 Du        
   4862 ****        14.0000 -10.5000  -5.0000 Du        
   4863 ****        14.0000 -10.5000  -4.7500 Du        
   4864 ****        14.0000 -10.2500  -6.0000 Du        
   4865 ****        14.0000 -10.2500  -5.7500 Du        
   4866 ****        14.0000 -10.2500  -5.5000 Du        
   4867 ****        14.0000 -10.2500  -5.2500 Du        
   4868 ****        14.0000 -10.2500  -5.0000 Du        
   4869 ****        14.0000 -10.2500  -4.7500 Du        
   4870 ****        14.0000 -10.0000  -6.0000 Du        
   4871 ****        14.0000 -10.0000  -5.7500 Du        
   4872 ****        14.0000 -10.0000  -5.5000 Du        
   4873 ****        14.0000 -10.0000  -5.2500 Du        
   4874 ****        14.0000 -10.0000  -5.0000 Du        
   4875 ****        14.0000  -9.7500  -6.0000 Du        
   4876 ****        14.0000  -9.7500  -5.7500 Du        
   4877 ****        14.0000  -9.7500  -5.5000 Du        
   4878 ****        14.0000  -9.7500  -5.2500 Du        
   4879 ****        14.0000  -9.2500 -13.0000 Du        
   4880 ****        14.0000  -9.0000 -13.0000 Du        
   4881 ****        14.0000  -9.0000 -12.7500 Du        
   4882 ****        14.0000  -8.7500 -13.5000 Du        
   4883 ****        14.0000  -8.7500 -13.2500 Du        
   4884 ****        14.0000  -8.7500 -13.0000 Du        
   4885 ****        14.0000  -8.7500 -12.7500 Du        
   4886 ****        14.0000  -7.5000  -7.7500 Du        
   4887 ****        14.0000  -7.5000  -7.5000 Du        
   4888 ****        14.0000  -7.5000  -7.2500 Du        
   4889 ****        14.0000  -7.5000  -7.0000 Du        
   4890 ****        14.0000  -7.5000  -6.7500 Du        
   4891 ****        14.0000  -7.2500  -8.5000 Du        
   4892 ****        14.0000  -7.2500  -8.2500 Du        
   4893 ****        14.0000  -7.2500  -8.0000 Du        
   4894 ****        14.0000  -7.2500  -7.7500 Du        
   4895 ****        14.0000  -7.2500  -7.5000 Du        
   4896 ****        14.0000  -7.2500  -7.2500 Du        
   4897 ****        14.0000  -7.2500  -7.0000 Du        
   4898 ****        14.0000  -7.2500  -6.7500 Du        
   4899 ****        14.0000  -7.0000  -9.0000 Du        
   4900 ****        14.0000  -7.0000  -8.7500 Du        
   4901 ****        14.0000  -7.0000  -8.5000 Du        
   4902 ****        14.0000  -7.0000  -8.2500 Du        
   4903 ****        14.0000  -7.0000  -8.0000 Du        
   4904 ****        14.0000  -7.0000  -7.7500 Du        
   4905 ****        14.0000  -7.0000  -7.5000 Du        
   4906 ****        14.0000  -7.0000  -7.2500 Du        
   4907 ****        14.0000  -7.0000  -7.0000 Du        
   4908 ****        14.0000  -7.0000  -6.7500 Du        
   4909 ****        14.0000  -7.0000  -6.5000 Du        
   4910 ****        14.0000  -6.7500  -8.2500 Du        
   4911 ****        14.0000  -6.7500  -8.0000 Du        
   4912 ****        14.0000  -6.7500  -7.7500 Du        
   4913 ****        14.0000  -6.7500  -7.5000 Du        
   4914 ****        14.0000  -6.7500  -7.2500 Du        
   4915 ****        14.0000  -6.7500  -7.0000 Du        
   4916 ****        14.0000  -6.7500  -6.7500 Du        
   4917 ****        14.0000  -6.5000  -7.5000 Du        
   4918 ****        14.0000  -6.5000  -7.2500 Du        
   4919 ****        14.0000  -6.5000  -7.0000 Du        
   4920 ****        14.0000  -6.5000  -6.7500 Du        
   4921 ****        14.0000  -6.5000  -6.5000 Du        
   4922 ****        14.0000   2.5000   8.2500 Du        
   4923 ****        14.0000   2.5000   8.5000 Du        
   4924 ****        14.0000   2.5000   8.7500 Du        
   4925 ****        14.0000   2.7500   8.0000 Du        
   4926 ****        14.0000   2.7500   8.2500 Du        
   4927 ****        14.0000   2.7500   8.5000 Du        
   4928 ****        14.0000   2.7500   8.7500 Du        
   4929 ****        14.0000   2.7500   9.0000 Du        
   4930 ****        14.0000   2.7500   9.2500 Du        
   4931 ****        14.0000   2.7500   9.5000 Du        
   4932 ****        14.0000   2.7500   9.7500 Du        
   4933 ****        14.0000   3.0000   8.2500 Du        
   4934 ****        14.0000   3.0000   8.5000 Du        
   4935 ****        14.0000   3.0000   8.7500 Du        
   4936 ****        14.0000   3.0000   9.0000 Du        
   4937 ****        14.0000   3.0000   9.2500 Du        
   4938 ****        14.0000   3.0000   9.5000 Du        
   4939 ****        14.0000   3.0000   9.7500 Du        
   4940 ****        14.0000   3.0000  10.0000 Du        
   4941 ****        14.0000   3.2500   9.0000 Du        
   4942 ****        14.0000   3.2500   9.2500 Du        
   4943 ****        14.0000   3.2500   9.5000 Du        
   4944 ****        14.0000   3.2500   9.7500 Du        
   4945 ****        14.0000   3.2500  10.0000 Du        
   4946 ****        14.0000   3.2500  10.2500 Du        
   4947 ****        14.0000   3.5000   9.2500 Du        
   4948 ****        14.0000   3.5000   9.5000 Du        
   4949 ****        14.0000   3.5000   9.7500 Du        
   4950 ****        14.0000   3.5000  10.0000 Du        
   4951 ****        14.0000   3.5000  10.2500 Du        
   4952 ****        14.0000   3.7500   9.5000 Du        
   4953 ****        14.0000   3.7500   9.7500 Du        
   4954 ****        14.0000   3.7500  10.0000 Du        
   4955 ****        14.0000   3.7500  10.2500 Du        
   4956 ****        14.0000   3.7500  10.5000 Du        
   4957 ****        14.0000   4.0000   9.7500 Du        
   4958 ****        14.0000   4.0000  10.0000 Du        
   4959 ****        14.0000   4.0000  10.2500 Du        
   4960 ****        14.0000   4.0000  10.5000 Du        
   4961 ****        14.0000   4.0000  10.7500 Du        
   4962 ****        14.0000   4.0000  11.0000 Du        
   4963 ****        14.0000   4.0000  11.2500 Du        
   4964 ****        14.0000   4.2500  10.2500 Du        
   4965 ****        14.0000   4.2500  10.5000 Du        
   4966 ****        14.0000   4.2500  10.7500 Du        
   4967 ****        14.0000   4.2500  11.0000 Du        
   4968 ****        14.0000   4.2500  11.2500 Du        
   4969 ****        14.0000   4.5000  10.5000 Du        
   4970 ****        14.0000   4.5000  10.7500 Du        
   4971 ****        14.0000   4.5000  11.0000 Du        
   4972 ****        14.0000   4.5000  11.2500 Du        
   4973 ****        14.0000   4.7500  10.7500 Du        
   4974 ****        14.0000   4.7500  11.0000 Du        
   4975 ****        14.0000   4.7500  11.2500 Du        
   4976 ****        14.0000   4.7500  11.5000 Du        
   4977 ****        14.0000   4.7500  11.7500 Du        
   4978 ****        14.0000   5.0000  11.0000 Du        
   4979 ****        14.0000   5.0000  11.2500 Du        
   4980 ****        14.0000   5.0000  11.5000 Du        
   4981 ****        14.0000   5.0000  11.7500 Du        
   4982 ****        14.0000   5.0000  12.0000 Du        
   4983 ****        14.0000   5.2500  11.0000 Du        
   4984 ****        14.0000   5.2500  11.2500 Du        
   4985 ****        14.0000   5.2500  11.5000 Du        
   4986 ****        14.0000   5.2500  11.7500 Du        
   4987 ****        14.0000   5.2500  12.0000 Du        
   4988 ****        14.0000   5.2500  12.2500 Du        
   4989 ****        14.0000   5.5000  11.5000 Du        
   4990 ****        14.0000   5.5000  11.7500 Du        
   4991 ****        14.0000   5.5000  12.0000 Du        
   4992 ****        14.0000   5.5000  12.2500 Du        
   4993 ****        14.0000   5.7500  12.2500 Du        
   4994 ****        14.0000  15.5000  10.0000 Du        
   4995 ****        14.0000  15.5000  10.2500 Du        
   4996 ****        14.0000  15.7500  10.0000 Du        
   4997 ****        14.0000  15.7500  10.2500 Du        
   4998 ****        14.0000  15.7500  10.5000 Du        
   4999 ****        14.0000  16.0000  10.2500 Du        
   5000 ****        14.0000  16.0000  10.5000 Du        
   5001 ****        14.0000  16.0000  10.7500 Du        
   5002 ****        14.0000  16.2500  10.2500 Du        
   5003 ****        14.0000  16.2500  10.5000 Du        
   5004 ****        14.0000  16.2500  10.7500 Du        
   5005 ****        14.0000  16.2500  11.0000 Du        
   5006 ****        14.0000  16.2500  11.2500 Du        
   5007 ****        14.0000  16.5000  10.5000 Du        
   5008 ****        14.0000  16.5000  10.7500 Du        
   5009 ****        14.0000  16.5000  11.0000 Du        
   5010 ****        14.0000  16.5000  11.2500 Du        
   5011 ****        14.0000  16.5000  11.5000 Du        
   5012 ****        14.0000  16.7500  10.7500 Du        
   5013 ****        14.0000  16.7500  11.0000 Du        
   5014 ****        14.0000  16.7500  11.2500 Du        
   5015 ****        14.0000  16.7500  11.5000 Du        
   5016 ****        14.0000  16.7500  11.7500 Du        
   5017 ****        14.0000  17.0000  10.7500 Du        
   5018 ****        14.0000  17.0000  11.0000 Du        
   5019 ****        14.0000  17.0000  11.2500 Du        
   5020 ****        14.0000  17.0000  11.5000 Du        
   5021 ****        14.0000  17.0000  11.7500 Du        
   5022 ****        14.0000  17.2500  11.0000 Du        
   5023 ****        14.0000  17.2500  11.2500 Du        
   5024 ****        14.0000  17.5000  11.2500 Du        
   5025 ****        14.2500 -11.0000  -5.2500 Du        
   5026 ****        14.2500 -11.0000  -5.0000 Du        
   5027 ****        14.2500 -10.7500  -6.0000 Du        
   5028 ****        14.2500 -10.7500  -5.7500 Du        
   5029 ****        14.2500 -10.7500  -5.5000 Du        
   5030 ****        14.2500 -10.7500  -5.2500 Du        
   5031 ****        14.2500 -10.7500  -5.0000 Du        
   5032 ****        14.2500 -10.7500  -4.7500 Du        
   5033 ****        14.2500 -10.7500  -4.5000 Du        
   5034 ****        14.2500 -10.7500  -4.2500 Du        
   5035 ****        14.2500 -10.5000  -6.0000 Du        
   5036 ****        14.2500 -10.5000  -5.7500 Du        
   5037 ****        14.2500 -10.5000  -5.5000 Du        
   5038 ****        14.2500 -10.5000  -5.2500 Du        
   5039 ****        14.2500 -10.5000  -5.0000 Du        
   5040 ****        14.2500 -10.5000  -4.7500 Du        
   5041 ****        14.2500 -10.5000  -4.5000 Du        
   5042 ****        14.2500 -10.2500  -6.0000 Du        
   5043 ****        14.2500 -10.2500  -5.7500 Du        
   5044 ****        14.2500 -10.2500  -5.5000 Du        
   5045 ****        14.2500 -10.2500  -5.2500 Du        
   5046 ****        14.2500 -10.2500  -5.0000 Du        
   5047 ****        14.2500 -10.2500  -4.7500 Du        
   5048 ****        14.2500 -10.2500  -4.5000 Du        
   5049 ****        14.2500 -10.0000  -6.0000 Du        
   5050 ****        14.2500 -10.0000  -5.7500 Du        
   5051 ****        14.2500 -10.0000  -5.5000 Du        
   5052 ****        14.2500 -10.0000  -5.2500 Du        
   5053 ****        14.2500 -10.0000  -5.0000 Du        
   5054 ****        14.2500 -10.0000  -4.7500 Du        
   5055 ****        14.2500  -9.7500  -6.0000 Du        
   5056 ****        14.2500  -9.7500  -5.7500 Du        
   5057 ****        14.2500  -9.7500  -5.5000 Du        
   5058 ****        14.2500  -9.7500  -5.2500 Du        
   5059 ****        14.2500  -9.7500  -5.0000 Du        
   5060 ****        14.2500  -9.2500 -13.0000 Du        
   5061 ****        14.2500  -9.2500 -12.7500 Du        
   5062 ****        14.2500  -9.0000 -13.0000 Du        
   5063 ****        14.2500  -9.0000 -12.7500 Du        
   5064 ****        14.2500  -8.7500 -13.5000 Du        
   5065 ****        14.2500  -8.7500 -13.2500 Du        
   5066 ****        14.2500  -8.7500 -13.0000 Du        
   5067 ****        14.2500  -8.7500 -12.7500 Du        
   5068 ****        14.2500  -7.5000  -8.0000 Du        
   5069 ****        14.2500  -7.5000  -7.7500 Du        
   5070 ****        14.2500  -7.5000  -7.5000 Du        
   5071 ****        14.2500  -7.5000  -7.2500 Du        
   5072 ****        14.2500  -7.5000  -7.0000 Du        
   5073 ****        14.2500  -7.5000  -6.7500 Du        
   5074 ****        14.2500  -7.2500  -8.2500 Du        
   5075 ****        14.2500  -7.2500  -8.0000 Du        
   5076 ****        14.2500  -7.2500  -7.7500 Du        
   5077 ****        14.2500  -7.2500  -7.5000 Du        
   5078 ****        14.2500  -7.2500  -7.2500 Du        
   5079 ****        14.2500  -7.2500  -7.0000 Du        
   5080 ****        14.2500  -7.2500  -6.7500 Du        
   5081 ****        14.2500  -7.0000  -8.5000 Du        
   5082 ****        14.2500  -7.0000  -8.2500 Du        
   5083 ****        14.2500  -7.0000  -8.0000 Du        
   5084 ****        14.2500  -7.0000  -7.7500 Du        
   5085 ****        14.2500  -7.0000  -7.5000 Du        
   5086 ****        14.2500  -7.0000  -7.2500 Du        
   5087 ****        14.2500  -7.0000  -7.0000 Du        
   5088 ****        14.2500  -7.0000  -6.7500 Du        
   5089 ****        14.2500  -6.7500  -8.0000 Du        
   5090 ****        14.2500  -6.7500  -7.7500 Du        
   5091 ****        14.2500  -6.7500  -7.5000 Du        
   5092 ****        14.2500  -6.7500  -7.2500 Du        
   5093 ****        14.2500  -6.7500  -7.0000 Du        
   5094 ****        14.2500  -6.7500  -6.7500 Du        
   5095 ****        14.2500  -6.5000  -7.0000 Du        
   5096 ****        14.2500  -6.5000  -6.7500 Du        
   5097 ****        14.2500   2.5000   8.0000 Du        
   5098 ****        14.2500   2.5000   8.2500 Du        
   5099 ****        14.2500   2.5000   8.5000 Du        
   5100 ****        14.2500   2.5000   8.7500 Du        
   5101 ****        14.2500   2.7500   8.0000 Du        
   5102 ****        14.2500   2.7500   8.2500 Du        
   5103 ****        14.2500   2.7500   8.5000 Du        
   5104 ****        14.2500   2.7500   8.7500 Du        
   5105 ****        14.2500   2.7500   9.0000 Du        
   5106 ****        14.2500   2.7500   9.2500 Du        
   5107 ****        14.2500   2.7500   9.5000 Du        
   5108 ****        14.2500   2.7500   9.7500 Du        
   5109 ****        14.2500   3.0000   8.2500 Du        
   5110 ****        14.2500   3.0000   8.5000 Du        
   5111 ****        14.2500   3.0000   8.7500 Du        
   5112 ****        14.2500   3.0000   9.0000 Du        
   5113 ****        14.2500   3.0000   9.2500 Du        
   5114 ****        14.2500   3.0000   9.5000 Du        
   5115 ****        14.2500   3.0000   9.7500 Du        
   5116 ****        14.2500   3.0000  10.0000 Du        
   5117 ****        14.2500   3.2500   8.7500 Du        
   5118 ****        14.2500   3.2500   9.0000 Du        
   5119 ****        14.2500   3.2500   9.2500 Du        
   5120 ****        14.2500   3.2500   9.5000 Du        
   5121 ****        14.2500   3.2500   9.7500 Du        
   5122 ****        14.2500   3.2500  10.0000 Du        
   5123 ****        14.2500   3.2500  10.2500 Du        
   5124 ****        14.2500   3.5000   9.0000 Du        
   5125 ****        14.2500   3.5000   9.2500 Du        
   5126 ****        14.2500   3.5000   9.5000 Du        
   5127 ****        14.2500   3.5000   9.7500 Du        
   5128 ****        14.2500   3.5000  10.0000 Du        
   5129 ****        14.2500   3.5000  10.2500 Du        
   5130 ****        14.2500   3.7500   9.5000 Du        
   5131 ****        14.2500   3.7500   9.7500 Du        
   5132 ****        14.2500   3.7500  10.0000 Du        
   5133 ****        14.2500   3.7500  10.2500 Du        
   5134 ****        14.2500   3.7500  10.5000 Du        
   5135 ****        14.2500   3.7500  10.7500 Du        
   5136 ****        14.2500   3.7500  11.0000 Du        
   5137 ****        14.2500   4.0000  10.0000 Du        
   5138 ****        14.2500   4.0000  10.2500 Du        
   5139 ****        14.2500   4.0000  10.5000 Du        
   5140 ****        14.2500   4.0000  10.7500 Du        
   5141 ****        14.2500   4.0000  11.0000 Du        
   5142 ****        14.2500   4.0000  11.2500 Du        
   5143 ****        14.2500   4.2500  10.2500 Du        
   5144 ****        14.2500   4.2500  10.5000 Du        
   5145 ****        14.2500   4.2500  10.7500 Du        
   5146 ****        14.2500   4.2500  11.0000 Du        
   5147 ****        14.2500   4.2500  11.2500 Du        
   5148 ****        14.2500   4.5000  10.7500 Du        
   5149 ****        14.2500   4.5000  11.0000 Du        
   5150 ****        14.2500   4.5000  11.2500 Du        
   5151 ****        14.2500   4.5000  11.5000 Du        
   5152 ****        14.2500   4.7500  10.7500 Du        
   5153 ****        14.2500   4.7500  11.0000 Du        
   5154 ****        14.2500   4.7500  11.2500 Du        
   5155 ****        14.2500   4.7500  11.5000 Du        
   5156 ****        14.2500   4.7500  11.7500 Du        
   5157 ****        14.2500   4.7500  12.0000 Du        
   5158 ****        14.2500   5.0000  11.0000 Du        
   5159 ****        14.2500   5.0000  11.2500 Du        
   5160 ****        14.2500   5.0000  11.5000 Du        
   5161 ****        14.2500   5.0000  11.7500 Du        
   5162 ****        14.2500   5.0000  12.0000 Du        
   5163 ****        14.2500   5.0000  12.2500 Du        
   5164 ****        14.2500   5.2500  11.2500 Du        
   5165 ****        14.2500   5.2500  11.5000 Du        
   5166 ****        14.2500   5.2500  11.7500 Du        
   5167 ****        14.2500   5.2500  12.0000 Du        
   5168 ****        14.2500   5.2500  12.2500 Du        
   5169 ****        14.2500   5.5000  12.0000 Du        
   5170 ****        14.2500   5.5000  12.2500 Du        
   5171 ****        14.2500  15.7500  10.0000 Du        
   5172 ****        14.2500  15.7500  10.2500 Du        
   5173 ****        14.2500  16.0000  10.2500 Du        
   5174 ****        14.2500  16.0000  10.5000 Du        
   5175 ****        14.2500  16.0000  10.7500 Du        
   5176 ****        14.2500  16.2500  10.2500 Du        
   5177 ****        14.2500  16.2500  10.5000 Du        
   5178 ****        14.2500  16.2500  10.7500 Du        
   5179 ****        14.2500  16.2500  11.0000 Du        
   5180 ****        14.2500  16.5000  10.5000 Du        
   5181 ****        14.2500  16.5000  10.7500 Du        
   5182 ****        14.2500  16.5000  11.0000 Du        
   5183 ****        14.2500  16.5000  11.2500 Du        
   5184 ****        14.2500  16.7500  10.5000 Du        
   5185 ****        14.2500  16.7500  10.7500 Du        
   5186 ****        14.2500  16.7500  11.0000 Du        
   5187 ****        14.2500  16.7500  11.2500 Du        
   5188 ****        14.2500  16.7500  11.5000 Du        
   5189 ****        14.2500  17.0000  10.7500 Du        
   5190 ****        14.2500  17.0000  11.0000 Du        
   5191 ****        14.2500  17.0000  11.2500 Du        
   5192 ****        14.2500  17.2500  11.0000 Du        
   5193 ****        14.2500  17.2500  11.2500 Du        
   5194 ****        14.5000 -11.0000  -5.5000 Du        
   5195 ****        14.5000 -11.0000  -5.2500 Du        
   5196 ****        14.5000 -11.0000  -5.0000 Du        
   5197 ****        14.5000 -11.0000  -4.7500 Du        
   5198 ****        14.5000 -11.0000  -4.5000 Du        
   5199 ****        14.5000 -10.7500  -5.7500 Du        
   5200 ****        14.5000 -10.7500  -5.5000 Du        
   5201 ****        14.5000 -10.7500  -5.2500 Du        
   5202 ****        14.5000 -10.7500  -5.0000 Du        
   5203 ****        14.5000 -10.7500  -4.7500 Du        
   5204 ****        14.5000 -10.7500  -4.5000 Du        
   5205 ****        14.5000 -10.7500  -4.2500 Du        
   5206 ****        14.5000 -10.7500  -4.0000 Du        
   5207 ****        14.5000 -10.5000  -6.0000 Du        
   5208 ****        14.5000 -10.5000  -5.7500 Du        
   5209 ****        14.5000 -10.5000  -5.5000 Du        
   5210 ****        14.5000 -10.5000  -5.2500 Du        
   5211 ****        14.5000 -10.5000  -5.0000 Du        
   5212 ****        14.5000 -10.5000  -4.7500 Du        
   5213 ****        14.5000 -10.5000  -4.5000 Du        
   5214 ****        14.5000 -10.5000  -4.2500 Du        
   5215 ****        14.5000 -10.2500  -6.0000 Du        
   5216 ****        14.5000 -10.2500  -5.7500 Du        
   5217 ****        14.5000 -10.2500  -5.5000 Du        
   5218 ****        14.5000 -10.2500  -5.2500 Du        
   5219 ****        14.5000 -10.2500  -5.0000 Du        
   5220 ****        14.5000 -10.2500  -4.7500 Du        
   5221 ****        14.5000 -10.2500  -4.5000 Du        
   5222 ****        14.5000 -10.2500  -4.2500 Du        
   5223 ****        14.5000 -10.0000  -6.0000 Du        
   5224 ****        14.5000 -10.0000  -5.7500 Du        
   5225 ****        14.5000 -10.0000  -5.5000 Du        
   5226 ****        14.5000 -10.0000  -5.2500 Du        
   5227 ****        14.5000 -10.0000  -5.0000 Du        
   5228 ****        14.5000 -10.0000  -4.7500 Du        
   5229 ****        14.5000 -10.0000  -4.5000 Du        
   5230 ****        14.5000  -9.7500  -6.2500 Du        
   5231 ****        14.5000  -9.7500  -6.0000 Du        
   5232 ****        14.5000  -9.7500  -5.7500 Du        
   5233 ****        14.5000  -9.7500  -5.5000 Du        
   5234 ****        14.5000  -9.7500  -5.2500 Du        
   5235 ****        14.5000  -9.7500  -5.0000 Du        
   5236 ****        14.5000  -9.5000 -13.0000 Du        
   5237 ****        14.5000  -9.5000  -6.0000 Du        
   5238 ****        14.5000  -9.5000  -5.7500 Du        
   5239 ****        14.5000  -9.2500 -13.0000 Du        
   5240 ****        14.5000  -9.2500 -12.7500 Du        
   5241 ****        14.5000  -9.2500  -6.0000 Du        
   5242 ****        14.5000  -9.2500  -5.7500 Du        
   5243 ****        14.5000  -9.0000 -13.0000 Du        
   5244 ****        14.5000  -9.0000 -12.7500 Du        
   5245 ****        14.5000  -8.7500 -13.5000 Du        
   5246 ****        14.5000  -8.7500 -13.2500 Du        
   5247 ****        14.5000  -8.7500 -13.0000 Du        
   5248 ****        14.5000  -8.5000 -13.5000 Du        
   5249 ****        14.5000  -8.5000 -13.2500 Du        
   5250 ****        14.5000  -7.7500  -7.2500 Du        
   5251 ****        14.5000  -7.7500  -7.0000 Du        
   5252 ****        14.5000  -7.5000  -7.7500 Du        
   5253 ****        14.5000  -7.5000  -7.5000 Du        
   5254 ****        14.5000  -7.5000  -7.2500 Du        
   5255 ****        14.5000  -7.5000  -7.0000 Du        
   5256 ****        14.5000  -7.5000  -6.7500 Du        
   5257 ****        14.5000  -7.2500  -8.2500 Du        
   5258 ****        14.5000  -7.2500  -8.0000 Du        
   5259 ****        14.5000  -7.2500  -7.7500 Du        
   5260 ****        14.5000  -7.2500  -7.5000 Du        
   5261 ****        14.5000  -7.2500  -7.2500 Du        
   5262 ****        14.5000  -7.2500  -7.0000 Du        
   5263 ****        14.5000  -7.2500  -6.7500 Du        
   5264 ****        14.5000  -7.0000  -8.2500 Du        
   5265 ****        14.5000  -7.0000  -8.0000 Du        
   5266 ****        14.5000  -7.0000  -7.7500 Du        
   5267 ****        14.5000  -7.0000  -7.5000 Du        
   5268 ****        14.5000  -7.0000  -7.2500 Du        
   5269 ****        14.5000  -7.0000  -7.0000 Du        
   5270 ****        14.5000  -7.0000  -6.7500 Du        
   5271 ****        14.5000  -6.7500  -7.2500 Du        
   5272 ****        14.5000  -6.7500  -7.0000 Du        
   5273 ****        14.5000  -6.7500  -6.7500 Du        
   5274 ****        14.5000   2.5000   8.2500 Du        
   5275 ****        14.5000   2.5000   8.5000 Du        
   5276 ****        14.5000   2.5000   8.7500 Du        
   5277 ****        14.5000   2.5000   9.0000 Du        
   5278 ****        14.5000   2.7500   8.2500 Du        
   5279 ****        14.5000   2.7500   8.5000 Du        
   5280 ****        14.5000   2.7500   8.7500 Du        
   5281 ****        14.5000   2.7500   9.0000 Du        
   5282 ****        14.5000   2.7500   9.2500 Du        
   5283 ****        14.5000   3.0000   8.2500 Du        
   5284 ****        14.5000   3.0000   8.5000 Du        
   5285 ****        14.5000   3.0000   8.7500 Du        
   5286 ****        14.5000   3.0000   9.0000 Du        
   5287 ****        14.5000   3.0000   9.2500 Du        
   5288 ****        14.5000   3.0000   9.5000 Du        
   5289 ****        14.5000   3.0000   9.7500 Du        
   5290 ****        14.5000   3.0000  10.0000 Du        
   5291 ****        14.5000   3.2500   9.0000 Du        
   5292 ****        14.5000   3.2500   9.2500 Du        
   5293 ****        14.5000   3.2500   9.5000 Du        
   5294 ****        14.5000   3.2500   9.7500 Du        
   5295 ****        14.5000   3.2500  10.0000 Du        
   5296 ****        14.5000   3.5000   9.2500 Du        
   5297 ****        14.5000   3.5000   9.5000 Du        
   5298 ****        14.5000   3.5000   9.7500 Du        
   5299 ****        14.5000   3.5000  10.0000 Du        
   5300 ****        14.5000   3.5000  10.2500 Du        
   5301 ****        14.5000   3.5000  10.5000 Du        
   5302 ****        14.5000   3.7500   9.7500 Du        
   5303 ****        14.5000   3.7500  10.0000 Du        
   5304 ****        14.5000   3.7500  10.2500 Du        
   5305 ****        14.5000   3.7500  10.5000 Du        
   5306 ****        14.5000   3.7500  10.7500 Du        
   5307 ****        14.5000   4.0000  10.2500 Du        
   5308 ****        14.5000   4.0000  10.5000 Du        
   5309 ****        14.5000   4.0000  10.7500 Du        
   5310 ****        14.5000   4.0000  11.0000 Du        
   5311 ****        14.5000   4.0000  11.2500 Du        
   5312 ****        14.5000   4.2500  10.5000 Du        
   5313 ****        14.5000   4.2500  10.7500 Du        
   5314 ****        14.5000   4.2500  11.0000 Du        
   5315 ****        14.5000   4.2500  11.2500 Du        
   5316 ****        14.5000   4.2500  11.5000 Du        
   5317 ****        14.5000   4.2500  11.7500 Du        
   5318 ****        14.5000   4.5000  10.7500 Du        
   5319 ****        14.5000   4.5000  11.0000 Du        
   5320 ****        14.5000   4.5000  11.2500 Du        
   5321 ****        14.5000   4.5000  11.5000 Du        
   5322 ****        14.5000   4.5000  11.7500 Du        
   5323 ****        14.5000   4.5000  12.0000 Du        
   5324 ****        14.5000   4.7500  10.7500 Du        
   5325 ****        14.5000   4.7500  11.0000 Du        
   5326 ****        14.5000   4.7500  11.2500 Du        
   5327 ****        14.5000   4.7500  11.5000 Du        
   5328 ****        14.5000   4.7500  11.7500 Du        
   5329 ****        14.5000   4.7500  12.0000 Du        
   5330 ****        14.5000   5.0000  11.0000 Du        
   5331 ****        14.5000   5.0000  11.2500 Du        
   5332 ****        14.5000   5.0000  11.5000 Du        
   5333 ****        14.5000   5.0000  11.7500 Du        
   5334 ****        14.5000   5.0000  12.0000 Du        
   5335 ****        14.5000   5.0000  12.2500 Du        
   5336 ****        14.5000   5.2500  11.7500 Du        
   5337 ****        14.5000   5.2500  12.0000 Du        
   5338 ****        14.5000  16.0000  10.2500 Du        
   5339 ****        14.5000  16.0000  10.5000 Du        
   5340 ****        14.5000  16.2500  10.2500 Du        
   5341 ****        14.5000  16.2500  10.5000 Du        
   5342 ****        14.5000  16.2500  10.7500 Du        
   5343 ****        14.5000  16.5000  10.5000 Du        
   5344 ****        14.5000  16.5000  10.7500 Du        
   5345 ****        14.5000  16.5000  11.0000 Du        
   5346 ****        14.5000  16.7500  10.7500 Du        
   5347 ****        14.5000  16.7500  11.0000 Du        
   5348 ****        14.7500 -11.0000  -5.5000 Du        
   5349 ****        14.7500 -11.0000  -5.2500 Du        
   5350 ****        14.7500 -11.0000  -5.0000 Du        
   5351 ****        14.7500 -11.0000  -4.7500 Du        
   5352 ****        14.7500 -11.0000  -4.5000 Du        
   5353 ****        14.7500 -11.0000  -4.2500 Du        
   5354 ****        14.7500 -10.7500  -5.7500 Du        
   5355 ****        14.7500 -10.7500  -5.5000 Du        
   5356 ****        14.7500 -10.7500  -5.2500 Du        
   5357 ****        14.7500 -10.7500  -5.0000 Du        
   5358 ****        14.7500 -10.7500  -4.7500 Du        
   5359 ****        14.7500 -10.7500  -4.5000 Du        
   5360 ****        14.7500 -10.7500  -4.2500 Du        
   5361 ****        14.7500 -10.7500  -4.0000 Du        
   5362 ****        14.7500 -10.5000  -5.7500 Du        
   5363 ****        14.7500 -10.5000  -5.5000 Du        
   5364 ****        14.7500 -10.5000  -5.2500 Du        
   5365 ****        14.7500 -10.5000  -5.0000 Du        
   5366 ****        14.7500 -10.5000  -4.7500 Du        
   5367 ****        14.7500 -10.5000  -4.5000 Du        
   5368 ****        14.7500 -10.5000  -4.2500 Du        
   5369 ****        14.7500 -10.2500  -6.0000 Du        
   5370 ****        14.7500 -10.2500  -5.7500 Du        
   5371 ****        14.7500 -10.2500  -5.5000 Du        
   5372 ****        14.7500 -10.2500  -5.2500 Du        
   5373 ****        14.7500 -10.2500  -5.0000 Du        
   5374 ****        14.7500 -10.2500  -4.7500 Du        
   5375 ****        14.7500 -10.2500  -4.5000 Du        
   5376 ****        14.7500 -10.2500  -4.2500 Du        
   5377 ****        14.7500 -10.0000  -6.0000 Du        
   5378 ****        14.7500 -10.0000  -5.7500 Du        
   5379 ****        14.7500 -10.0000  -5.5000 Du        
   5380 ****        14.7500 -10.0000  -5.2500 Du        
   5381 ****        14.7500 -10.0000  -5.0000 Du        
   5382 ****        14.7500 -10.0000  -4.7500 Du        
   5383 ****        14.7500 -10.0000  -4.5000 Du        
   5384 ****        14.7500 -10.0000  -4.2500 Du        
   5385 ****        14.7500  -9.7500  -6.0000 Du        
   5386 ****        14.7500  -9.7500  -5.7500 Du        
   5387 ****        14.7500  -9.7500  -5.5000 Du        
   5388 ****        14.7500  -9.7500  -5.2500 Du        
   5389 ****        14.7500  -9.7500  -5.0000 Du        
   5390 ****        14.7500  -9.7500  -4.7500 Du        
   5391 ****        14.7500  -9.7500  -4.5000 Du        
   5392 ****        14.7500  -9.5000 -13.0000 Du        
   5393 ****        14.7500  -9.5000  -6.0000 Du        
   5394 ****        14.7500  -9.5000  -5.7500 Du        
   5395 ****        14.7500  -9.5000  -5.5000 Du        
   5396 ****        14.7500  -9.5000  -5.2500 Du        
   5397 ****        14.7500  -9.2500 -13.0000 Du        
   5398 ****        14.7500  -9.2500  -6.0000 Du        
   5399 ****        14.7500  -9.2500  -5.7500 Du        
   5400 ****        14.7500  -9.2500  -5.5000 Du        
   5401 ****        14.7500  -9.0000 -13.0000 Du        
   5402 ****        14.7500  -8.7500 -13.5000 Du        
   5403 ****        14.7500  -8.7500 -13.2500 Du        
   5404 ****        14.7500  -7.2500  -7.7500 Du        
   5405 ****        14.7500   2.2500   8.2500 Du        
   5406 ****        14.7500   2.5000   8.0000 Du        
   5407 ****        14.7500   2.5000   8.2500 Du        
   5408 ****        14.7500   2.5000   8.5000 Du        
   5409 ****        14.7500   2.5000   8.7500 Du        
   5410 ****        14.7500   2.5000   9.0000 Du        
   5411 ****        14.7500   2.5000   9.2500 Du        
   5412 ****        14.7500   2.7500   8.2500 Du        
   5413 ****        14.7500   2.7500   8.5000 Du        
   5414 ****        14.7500   2.7500   8.7500 Du        
   5415 ****        14.7500   2.7500   9.0000 Du        
   5416 ****        14.7500   2.7500   9.2500 Du        
   5417 ****        14.7500   2.7500   9.5000 Du        
   5418 ****        14.7500   2.7500   9.7500 Du        
   5419 ****        14.7500   3.0000   8.5000 Du        
   5420 ****        14.7500   3.0000   8.7500 Du        
   5421 ****        14.7500   3.0000   9.0000 Du        
   5422 ****        14.7500   3.0000   9.2500 Du        
   5423 ****        14.7500   3.0000   9.5000 Du        
   5424 ****        14.7500   3.0000   9.7500 Du        
   5425 ****        14.7500   3.0000  10.0000 Du        
   5426 ****        14.7500   3.2500   9.0000 Du        
   5427 ****        14.7500   3.2500   9.2500 Du        
   5428 ****        14.7500   3.2500   9.5000 Du        
   5429 ****        14.7500   3.2500   9.7500 Du        
   5430 ****        14.7500   3.2500  10.0000 Du        
   5431 ****        14.7500   3.2500  10.2500 Du        
   5432 ****        14.7500   3.5000   9.7500 Du        
   5433 ****        14.7500   3.5000  10.0000 Du        
   5434 ****        14.7500   3.5000  10.2500 Du        
   5435 ****        14.7500   3.5000  10.5000 Du        
   5436 ****        14.7500   3.5000  10.7500 Du        
   5437 ****        14.7500   3.5000  11.0000 Du        
   5438 ****        14.7500   3.7500  10.0000 Du        
   5439 ****        14.7500   3.7500  10.2500 Du        
   5440 ****        14.7500   3.7500  10.5000 Du        
   5441 ****        14.7500   3.7500  10.7500 Du        
   5442 ****        14.7500   3.7500  11.0000 Du        
   5443 ****        14.7500   3.7500  11.2500 Du        
   5444 ****        14.7500   4.0000  10.5000 Du        
   5445 ****        14.7500   4.0000  10.7500 Du        
   5446 ****        14.7500   4.0000  11.0000 Du        
   5447 ****        14.7500   4.0000  11.2500 Du        
   5448 ****        14.7500   4.0000  11.5000 Du        
   5449 ****        14.7500   4.0000  11.7500 Du        
   5450 ****        14.7500   4.2500  10.7500 Du        
   5451 ****        14.7500   4.2500  11.0000 Du        
   5452 ****        14.7500   4.2500  11.2500 Du        
   5453 ****        14.7500   4.2500  11.5000 Du        
   5454 ****        14.7500   4.2500  11.7500 Du        
   5455 ****        14.7500   4.2500  12.0000 Du        
   5456 ****        14.7500   4.5000  10.7500 Du        
   5457 ****        14.7500   4.5000  11.0000 Du        
   5458 ****        14.7500   4.5000  11.2500 Du        
   5459 ****        14.7500   4.5000  11.5000 Du        
   5460 ****        14.7500   4.5000  11.7500 Du        
   5461 ****        14.7500   4.5000  12.0000 Du        
   5462 ****        14.7500   4.5000  12.2500 Du        
   5463 ****        14.7500   4.7500  11.0000 Du        
   5464 ****        14.7500   4.7500  11.2500 Du        
   5465 ****        14.7500   4.7500  11.5000 Du        
   5466 ****        14.7500   4.7500  11.7500 Du        
   5467 ****        14.7500   4.7500  12.0000 Du        
   5468 ****        14.7500   4.7500  12.2500 Du        
   5469 ****        14.7500   5.0000  11.2500 Du        
   5470 ****        14.7500   5.0000  11.5000 Du        
   5471 ****        14.7500   5.0000  11.7500 Du        
   5472 ****        14.7500   5.0000  12.0000 Du        
   5473 ****        15.0000 -11.0000  -5.2500 Du        
   5474 ****        15.0000 -11.0000  -5.0000 Du        
   5475 ****        15.0000 -11.0000  -4.7500 Du        
   5476 ****        15.0000 -11.0000  -4.5000 Du        
   5477 ****        15.0000 -10.7500  -5.5000 Du        
   5478 ****        15.0000 -10.7500  -5.2500 Du        
   5479 ****        15.0000 -10.7500  -5.0000 Du        
   5480 ****        15.0000 -10.7500  -4.7500 Du        
   5481 ****        15.0000 -10.7500  -4.5000 Du        
   5482 ****        15.0000 -10.7500  -4.2500 Du        
   5483 ****        15.0000 -10.5000  -5.7500 Du        
   5484 ****        15.0000 -10.5000  -5.5000 Du        
   5485 ****        15.0000 -10.5000  -5.2500 Du        
   5486 ****        15.0000 -10.5000  -5.0000 Du        
   5487 ****        15.0000 -10.5000  -4.7500 Du        
   5488 ****        15.0000 -10.5000  -4.5000 Du        
   5489 ****        15.0000 -10.5000  -4.2500 Du        
   5490 ****        15.0000 -10.2500  -5.7500 Du        
   5491 ****        15.0000 -10.2500  -5.5000 Du        
   5492 ****        15.0000 -10.2500  -5.2500 Du        
   5493 ****        15.0000 -10.2500  -5.0000 Du        
   5494 ****        15.0000 -10.2500  -4.7500 Du        
   5495 ****        15.0000 -10.2500  -4.5000 Du        
   5496 ****        15.0000 -10.2500  -4.2500 Du        
   5497 ****        15.0000 -10.0000  -6.0000 Du        
   5498 ****        15.0000 -10.0000  -5.7500 Du        
   5499 ****        15.0000 -10.0000  -5.5000 Du        
   5500 ****        15.0000 -10.0000  -5.2500 Du        
   5501 ****        15.0000 -10.0000  -5.0000 Du        
   5502 ****        15.0000 -10.0000  -4.7500 Du        
   5503 ****        15.0000 -10.0000  -4.5000 Du        
   5504 ****        15.0000 -10.0000  -4.2500 Du        
   5505 ****        15.0000 -10.0000  -4.0000 Du        
   5506 ****        15.0000  -9.7500  -6.0000 Du        
   5507 ****        15.0000  -9.7500  -5.7500 Du        
   5508 ****        15.0000  -9.7500  -5.5000 Du        
   5509 ****        15.0000  -9.7500  -5.2500 Du        
   5510 ****        15.0000  -9.7500  -5.0000 Du        
   5511 ****        15.0000  -9.7500  -4.7500 Du        
   5512 ****        15.0000  -9.7500  -4.5000 Du        
   5513 ****        15.0000  -9.5000 -13.0000 Du        
   5514 ****        15.0000  -9.5000  -6.0000 Du        
   5515 ****        15.0000  -9.5000  -5.7500 Du        
   5516 ****        15.0000  -9.5000  -5.5000 Du        
   5517 ****        15.0000  -9.5000  -5.2500 Du        
   5518 ****        15.0000  -9.5000  -5.0000 Du        
   5519 ****        15.0000  -9.2500 -13.0000 Du        
   5520 ****        15.0000  -9.2500  -6.0000 Du        
   5521 ****        15.0000  -9.2500  -5.7500 Du        
   5522 ****        15.0000  -9.2500  -5.5000 Du        
   5523 ****        15.0000  -8.7500 -13.5000 Du        
   5524 ****        15.0000  -8.2500 -14.0000 Du        
   5525 ****        15.0000   2.0000   8.0000 Du        
   5526 ****        15.0000   2.0000   8.2500 Du        
   5527 ****        15.0000   2.2500   8.0000 Du        
   5528 ****        15.0000   2.2500   8.2500 Du        
   5529 ****        15.0000   2.5000   8.0000 Du        
   5530 ****        15.0000   2.5000   8.2500 Du        
   5531 ****        15.0000   2.5000   8.5000 Du        
   5532 ****        15.0000   2.5000   8.7500 Du        
   5533 ****        15.0000   2.5000   9.0000 Du        
   5534 ****        15.0000   2.5000   9.2500 Du        
   5535 ****        15.0000   2.7500   8.2500 Du        
   5536 ****        15.0000   2.7500   8.5000 Du        
   5537 ****        15.0000   2.7500   8.7500 Du        
   5538 ****        15.0000   2.7500   9.0000 Du        
   5539 ****        15.0000   2.7500   9.2500 Du        
   5540 ****        15.0000   2.7500   9.5000 Du        
   5541 ****        15.0000   2.7500   9.7500 Du        
   5542 ****        15.0000   2.7500  10.0000 Du        
   5543 ****        15.0000   3.0000   8.7500 Du        
   5544 ****        15.0000   3.0000   9.0000 Du        
   5545 ****        15.0000   3.0000   9.2500 Du        
   5546 ****        15.0000   3.0000   9.5000 Du        
   5547 ****        15.0000   3.0000   9.7500 Du        
   5548 ****        15.0000   3.0000  10.0000 Du        
   5549 ****        15.0000   3.2500   9.2500 Du        
   5550 ****        15.0000   3.2500   9.7500 Du        
   5551 ****        15.0000   3.2500  10.0000 Du        
   5552 ****        15.0000   3.2500  10.2500 Du        
   5553 ****        15.0000   3.5000   9.7500 Du        
   5554 ****        15.0000   3.5000  10.0000 Du        
   5555 ****        15.0000   3.5000  10.2500 Du        
   5556 ****        15.0000   3.5000  10.5000 Du        
   5557 ****        15.0000   3.5000  10.7500 Du        
   5558 ****        15.0000   3.5000  11.0000 Du        
   5559 ****        15.0000   3.5000  11.2500 Du        
   5560 ****        15.0000   3.7500  10.0000 Du        
   5561 ****        15.0000   3.7500  10.2500 Du        
   5562 ****        15.0000   3.7500  10.5000 Du        
   5563 ****        15.0000   3.7500  10.7500 Du        
   5564 ****        15.0000   3.7500  11.0000 Du        
   5565 ****        15.0000   3.7500  11.2500 Du        
   5566 ****        15.0000   3.7500  11.5000 Du        
   5567 ****        15.0000   3.7500  11.7500 Du        
   5568 ****        15.0000   4.0000  10.5000 Du        
   5569 ****        15.0000   4.0000  10.7500 Du        
   5570 ****        15.0000   4.0000  11.0000 Du        
   5571 ****        15.0000   4.0000  11.2500 Du        
   5572 ****        15.0000   4.0000  11.5000 Du        
   5573 ****        15.0000   4.0000  11.7500 Du        
   5574 ****        15.0000   4.0000  12.0000 Du        
   5575 ****        15.0000   4.2500  10.7500 Du        
   5576 ****        15.0000   4.2500  11.0000 Du        
   5577 ****        15.0000   4.2500  11.2500 Du        
   5578 ****        15.0000   4.2500  11.5000 Du        
   5579 ****        15.0000   4.2500  11.7500 Du        
   5580 ****        15.0000   4.2500  12.0000 Du        
   5581 ****        15.0000   4.5000  11.0000 Du        
   5582 ****        15.0000   4.5000  11.2500 Du        
   5583 ****        15.0000   4.5000  11.5000 Du        
   5584 ****        15.0000   4.5000  11.7500 Du        
   5585 ****        15.0000   4.5000  12.0000 Du        
   5586 ****        15.0000   4.5000  12.2500 Du        
   5587 ****        15.0000   4.7500  11.2500 Du        
   5588 ****        15.0000   4.7500  11.5000 Du        
   5589 ****        15.0000   4.7500  11.7500 Du        
   5590 ****        15.0000   4.7500  12.0000 Du        
   5591 ****        15.0000   4.7500  12.2500 Du        
   5592 ****        15.2500 -11.0000  -5.0000 Du        
   5593 ****        15.2500 -11.0000  -4.7500 Du        
   5594 ****        15.2500 -10.7500  -5.2500 Du        
   5595 ****        15.2500 -10.7500  -5.0000 Du        
   5596 ****        15.2500 -10.7500  -4.7500 Du        
   5597 ****        15.2500 -10.7500  -4.5000 Du        
   5598 ****        15.2500 -10.7500  -4.2500 Du        
   5599 ****        15.2500 -10.5000  -5.5000 Du        
   5600 ****        15.2500 -10.5000  -5.2500 Du        
   5601 ****        15.2500 -10.5000  -5.0000 Du        
   5602 ****        15.2500 -10.5000  -4.7500 Du        
   5603 ****        15.2500 -10.5000  -4.5000 Du        
   5604 ****        15.2500 -10.2500  -5.7500 Du        
   5605 ****        15.2500 -10.2500  -5.5000 Du        
   5606 ****        15.2500 -10.2500  -5.2500 Du        
   5607 ****        15.2500 -10.2500  -5.0000 Du        
   5608 ****        15.2500 -10.2500  -4.7500 Du        
   5609 ****        15.2500 -10.2500  -4.5000 Du        
   5610 ****        15.2500 -10.2500  -4.2500 Du        
   5611 ****        15.2500 -10.0000  -5.7500 Du        
   5612 ****        15.2500 -10.0000  -5.5000 Du        
   5613 ****        15.2500 -10.0000  -5.2500 Du        
   5614 ****        15.2500 -10.0000  -5.0000 Du        
   5615 ****        15.2500 -10.0000  -4.7500 Du        
   5616 ****        15.2500 -10.0000  -4.5000 Du        
   5617 ****        15.2500 -10.0000  -4.2500 Du        
   5618 ****        15.2500  -9.7500  -6.0000 Du        
   5619 ****        15.2500  -9.7500  -5.7500 Du        
   5620 ****        15.2500  -9.7500  -5.5000 Du        
   5621 ****        15.2500  -9.7500  -5.2500 Du        
   5622 ****        15.2500  -9.7500  -5.0000 Du        
   5623 ****        15.2500  -9.7500  -4.7500 Du        
   5624 ****        15.2500  -9.7500  -4.5000 Du        
   5625 ****        15.2500  -9.7500  -4.2500 Du        
   5626 ****        15.2500  -9.5000  -5.7500 Du        
   5627 ****        15.2500  -9.5000  -5.5000 Du        
   5628 ****        15.2500  -9.5000  -5.2500 Du        
   5629 ****        15.2500  -9.5000  -5.0000 Du        
   5630 ****        15.2500   2.0000   8.0000 Du        
   5631 ****        15.2500   2.0000   8.2500 Du        
   5632 ****        15.2500   2.2500   8.0000 Du        
   5633 ****        15.2500   2.2500   8.2500 Du        
   5634 ****        15.2500   2.5000   8.2500 Du        
   5635 ****        15.2500   2.5000   8.5000 Du        
   5636 ****        15.2500   2.5000   8.7500 Du        
   5637 ****        15.2500   2.5000   9.0000 Du        
   5638 ****        15.2500   2.5000   9.2500 Du        
   5639 ****        15.2500   2.5000   9.5000 Du        
   5640 ****        15.2500   2.5000   9.7500 Du        
   5641 ****        15.2500   2.7500   8.5000 Du        
   5642 ****        15.2500   2.7500   8.7500 Du        
   5643 ****        15.2500   2.7500   9.0000 Du        
   5644 ****        15.2500   2.7500   9.2500 Du        
   5645 ****        15.2500   2.7500   9.5000 Du        
   5646 ****        15.2500   2.7500   9.7500 Du        
   5647 ****        15.2500   2.7500  10.0000 Du        
   5648 ****        15.2500   3.0000   9.0000 Du        
   5649 ****        15.2500   3.0000   9.2500 Du        
   5650 ****        15.2500   3.0000   9.5000 Du        
   5651 ****        15.2500   3.0000   9.7500 Du        
   5652 ****        15.2500   3.0000  10.0000 Du        
   5653 ****        15.2500   3.0000  10.2500 Du        
   5654 ****        15.2500   3.2500   9.7500 Du        
   5655 ****        15.2500   3.2500  10.0000 Du        
   5656 ****        15.2500   3.2500  10.2500 Du        
   5657 ****        15.2500   3.5000  10.0000 Du        
   5658 ****        15.2500   3.5000  10.2500 Du        
   5659 ****        15.2500   3.5000  10.5000 Du        
   5660 ****        15.2500   3.5000  10.7500 Du        
   5661 ****        15.2500   3.5000  11.0000 Du        
   5662 ****        15.2500   3.5000  11.2500 Du        
   5663 ****        15.2500   3.5000  11.5000 Du        
   5664 ****        15.2500   3.7500  10.2500 Du        
   5665 ****        15.2500   3.7500  10.5000 Du        
   5666 ****        15.2500   3.7500  10.7500 Du        
   5667 ****        15.2500   3.7500  11.0000 Du        
   5668 ****        15.2500   3.7500  11.2500 Du        
   5669 ****        15.2500   3.7500  11.5000 Du        
   5670 ****        15.2500   3.7500  11.7500 Du        
   5671 ****        15.2500   4.0000  10.7500 Du        
   5672 ****        15.2500   4.0000  11.0000 Du        
   5673 ****        15.2500   4.0000  11.2500 Du        
   5674 ****        15.2500   4.0000  11.5000 Du        
   5675 ****        15.2500   4.0000  11.7500 Du        
   5676 ****        15.2500   4.0000  12.0000 Du        
   5677 ****        15.2500   4.2500  11.0000 Du        
   5678 ****        15.2500   4.2500  11.2500 Du        
   5679 ****        15.2500   4.2500  11.5000 Du        
   5680 ****        15.2500   4.2500  11.7500 Du        
   5681 ****        15.2500   4.2500  12.0000 Du        
   5682 ****        15.2500   4.2500  12.2500 Du        
   5683 ****        15.2500   4.5000  11.0000 Du        
   5684 ****        15.2500   4.5000  11.2500 Du        
   5685 ****        15.2500   4.5000  11.5000 Du        
   5686 ****        15.2500   4.5000  11.7500 Du        
   5687 ****        15.2500   4.5000  12.0000 Du        
   5688 ****        15.2500   4.5000  12.2500 Du        
   5689 ****        15.2500   4.7500  11.5000 Du        
   5690 ****        15.2500   4.7500  11.7500 Du        
   5691 ****        15.2500   4.7500  12.0000 Du        
   5692 ****        15.2500   4.7500  12.2500 Du        
   5693 ****        15.5000 -10.7500  -4.7500 Du        
   5694 ****        15.5000 -10.5000  -5.0000 Du        
   5695 ****        15.5000 -10.5000  -4.7500 Du        
   5696 ****        15.5000 -10.5000  -4.5000 Du        
   5697 ****        15.5000 -10.2500  -5.5000 Du        
   5698 ****        15.5000 -10.2500  -5.2500 Du        
   5699 ****        15.5000 -10.2500  -5.0000 Du        
   5700 ****        15.5000 -10.2500  -4.7500 Du        
   5701 ****        15.5000 -10.2500  -4.5000 Du        
   5702 ****        15.5000 -10.2500  -4.2500 Du        
   5703 ****        15.5000 -10.0000  -5.7500 Du        
   5704 ****        15.5000 -10.0000  -5.5000 Du        
   5705 ****        15.5000 -10.0000  -5.2500 Du        
   5706 ****        15.5000 -10.0000  -5.0000 Du        
   5707 ****        15.5000 -10.0000  -4.7500 Du        
   5708 ****        15.5000 -10.0000  -4.5000 Du        
   5709 ****        15.5000 -10.0000  -4.2500 Du        
   5710 ****        15.5000 -10.0000  -4.0000 Du        
   5711 ****        15.5000  -9.7500  -5.7500 Du        
   5712 ****        15.5000  -9.7500  -5.5000 Du        
   5713 ****        15.5000  -9.7500  -5.2500 Du        
   5714 ****        15.5000  -9.7500  -5.0000 Du        
   5715 ****        15.5000  -9.7500  -4.7500 Du        
   5716 ****        15.5000  -9.7500  -4.5000 Du        
   5717 ****        15.5000  -9.7500  -4.2500 Du        
   5718 ****        15.5000   2.0000   8.0000 Du        
   5719 ****        15.5000   2.2500   8.0000 Du        
   5720 ****        15.5000   2.2500   8.2500 Du        
   5721 ****        15.5000   2.5000   8.2500 Du        
   5722 ****        15.5000   2.5000   8.5000 Du        
   5723 ****        15.5000   2.5000   8.7500 Du        
   5724 ****        15.5000   2.5000   9.0000 Du        
   5725 ****        15.5000   2.5000   9.2500 Du        
   5726 ****        15.5000   2.5000   9.5000 Du        
   5727 ****        15.5000   2.5000   9.7500 Du        
   5728 ****        15.5000   2.5000  10.0000 Du        
   5729 ****        15.5000   2.7500   8.7500 Du        
   5730 ****        15.5000   2.7500   9.0000 Du        
   5731 ****        15.5000   2.7500   9.2500 Du        
   5732 ****        15.5000   2.7500   9.5000 Du        
   5733 ****        15.5000   2.7500   9.7500 Du        
   5734 ****        15.5000   2.7500  10.0000 Du        
   5735 ****        15.5000   2.7500  10.2500 Du        
   5736 ****        15.5000   3.0000   9.2500 Du        
   5737 ****        15.5000   3.0000   9.5000 Du        
   5738 ****        15.5000   3.0000   9.7500 Du        
   5739 ****        15.5000   3.0000  10.0000 Du        
   5740 ****        15.5000   3.0000  10.2500 Du        
   5741 ****        15.5000   3.2500   9.7500 Du        
   5742 ****        15.5000   3.2500  10.0000 Du        
   5743 ****        15.5000   3.2500  10.2500 Du        
   5744 ****        15.5000   3.2500  10.5000 Du        
   5745 ****        15.5000   3.5000  10.0000 Du        
   5746 ****        15.5000   3.5000  10.2500 Du        
   5747 ****        15.5000   3.5000  10.5000 Du        
   5748 ****        15.5000   3.5000  10.7500 Du        
   5749 ****        15.5000   3.5000  11.0000 Du        
   5750 ****        15.5000   3.5000  11.2500 Du        
   5751 ****        15.5000   3.5000  11.5000 Du        
   5752 ****        15.5000   3.7500  10.2500 Du        
   5753 ****        15.5000   3.7500  10.5000 Du        
   5754 ****        15.5000   3.7500  10.7500 Du        
   5755 ****        15.5000   3.7500  11.0000 Du        
   5756 ****        15.5000   3.7500  11.2500 Du        
   5757 ****        15.5000   3.7500  11.5000 Du        
   5758 ****        15.5000   3.7500  11.7500 Du        
   5759 ****        15.5000   3.7500  12.0000 Du        
   5760 ****        15.5000   4.0000  10.7500 Du        
   5761 ****        15.5000   4.0000  11.0000 Du        
   5762 ****        15.5000   4.0000  11.2500 Du        
   5763 ****        15.5000   4.0000  11.5000 Du        
   5764 ****        15.5000   4.0000  11.7500 Du        
   5765 ****        15.5000   4.0000  12.0000 Du        
   5766 ****        15.5000   4.2500  11.0000 Du        
   5767 ****        15.5000   4.2500  11.2500 Du        
   5768 ****        15.5000   4.2500  11.5000 Du        
   5769 ****        15.5000   4.2500  11.7500 Du        
   5770 ****        15.5000   4.2500  12.0000 Du        
   5771 ****        15.5000   4.2500  12.2500 Du        
   5772 ****        15.5000   4.5000  11.2500 Du        
   5773 ****        15.5000   4.5000  11.5000 Du        
   5774 ****        15.5000   4.5000  11.7500 Du        
   5775 ****        15.5000   4.5000  12.0000 Du        
   5776 ****        15.5000   4.5000  12.2500 Du        
   5777 ****        15.5000   4.7500  11.5000 Du        
   5778 ****        15.5000   4.7500  11.7500 Du        
   5779 ****        15.5000   4.7500  12.0000 Du        
   5780 ****        15.7500 -10.2500  -5.0000 Du        
   5781 ****        15.7500 -10.2500  -4.7500 Du        
   5782 ****        15.7500 -10.2500  -4.5000 Du        
   5783 ****        15.7500 -10.2500  -4.2500 Du        
   5784 ****        15.7500 -10.0000  -5.5000 Du        
   5785 ****        15.7500 -10.0000  -5.2500 Du        
   5786 ****        15.7500 -10.0000  -5.0000 Du        
   5787 ****        15.7500 -10.0000  -4.7500 Du        
   5788 ****        15.7500 -10.0000  -4.5000 Du        
   5789 ****        15.7500 -10.0000  -4.2500 Du        
   5790 ****        15.7500  -9.7500  -5.5000 Du        
   5791 ****        15.7500  -9.7500  -5.2500 Du        
   5792 ****        15.7500  -9.7500  -5.0000 Du        
   5793 ****        15.7500  -9.7500  -4.7500 Du        
   5794 ****        15.7500  -9.7500  -4.5000 Du        
   5795 ****        15.7500  -9.7500  -4.2500 Du        
   5796 ****        15.7500  -5.5000  -1.5000 Du        
   5797 ****        15.7500  -5.5000  -1.2500 Du        
   5798 ****        15.7500  -5.5000  -1.0000 Du        
   5799 ****        15.7500  -5.5000  -0.7500 Du        
   5800 ****        15.7500  -5.2500  -1.2500 Du        
   5801 ****        15.7500  -5.2500  -1.0000 Du        
   5802 ****        15.7500  -5.2500  -0.7500 Du        
   5803 ****        15.7500  -5.2500  -0.5000 Du        
   5804 ****        15.7500  -5.0000  -1.0000 Du        
   5805 ****        15.7500  -5.0000  -0.7500 Du        
   5806 ****        15.7500  -5.0000  -0.5000 Du        
   5807 ****        15.7500   2.5000   8.2500 Du        
   5808 ****        15.7500   2.5000   8.7500 Du        
   5809 ****        15.7500   2.5000   9.0000 Du        
   5810 ****        15.7500   2.5000   9.2500 Du        
   5811 ****        15.7500   2.5000   9.5000 Du        
   5812 ****        15.7500   2.5000   9.7500 Du        
   5813 ****        15.7500   2.7500   9.0000 Du        
   5814 ****        15.7500   2.7500   9.2500 Du        
   5815 ****        15.7500   2.7500   9.5000 Du        
   5816 ****        15.7500   2.7500   9.7500 Du        
   5817 ****        15.7500   2.7500  10.0000 Du        
   5818 ****        15.7500   2.7500  10.2500 Du        
   5819 ****        15.7500   3.0000   9.2500 Du        
   5820 ****        15.7500   3.0000   9.5000 Du        
   5821 ****        15.7500   3.0000   9.7500 Du        
   5822 ****        15.7500   3.0000  10.0000 Du        
   5823 ****        15.7500   3.0000  10.2500 Du        
   5824 ****        15.7500   3.0000  10.5000 Du        
   5825 ****        15.7500   3.0000  10.7500 Du        
   5826 ****        15.7500   3.2500   9.7500 Du        
   5827 ****        15.7500   3.2500  10.0000 Du        
   5828 ****        15.7500   3.2500  10.2500 Du        
   5829 ****        15.7500   3.2500  10.5000 Du        
   5830 ****        15.7500   3.2500  10.7500 Du        
   5831 ****        15.7500   3.2500  11.0000 Du        
   5832 ****        15.7500   3.2500  11.2500 Du        
   5833 ****        15.7500   3.5000  10.0000 Du        
   5834 ****        15.7500   3.5000  10.2500 Du        
   5835 ****        15.7500   3.5000  10.5000 Du        
   5836 ****        15.7500   3.5000  10.7500 Du        
   5837 ****        15.7500   3.5000  11.0000 Du        
   5838 ****        15.7500   3.5000  11.2500 Du        
   5839 ****        15.7500   3.5000  11.5000 Du        
   5840 ****        15.7500   3.5000  11.7500 Du        
   5841 ****        15.7500   3.7500  10.5000 Du        
   5842 ****        15.7500   3.7500  10.7500 Du        
   5843 ****        15.7500   3.7500  11.0000 Du        
   5844 ****        15.7500   3.7500  11.2500 Du        
   5845 ****        15.7500   3.7500  11.5000 Du        
   5846 ****        15.7500   3.7500  11.7500 Du        
   5847 ****        15.7500   3.7500  12.0000 Du        
   5848 ****        15.7500   4.0000  10.7500 Du        
   5849 ****        15.7500   4.0000  11.0000 Du        
   5850 ****        15.7500   4.0000  11.2500 Du        
   5851 ****        15.7500   4.0000  11.5000 Du        
   5852 ****        15.7500   4.0000  11.7500 Du        
   5853 ****        15.7500   4.0000  12.0000 Du        
   5854 ****        15.7500   4.0000  12.2500 Du        
   5855 ****        15.7500   4.2500  11.0000 Du        
   5856 ****        15.7500   4.2500  11.2500 Du        
   5857 ****        15.7500   4.2500  11.5000 Du        
   5858 ****        15.7500   4.2500  11.7500 Du        
   5859 ****        15.7500   4.2500  12.0000 Du        
   5860 ****        15.7500   4.2500  12.2500 Du        
   5861 ****        15.7500   4.5000  11.2500 Du        
   5862 ****        15.7500   4.5000  11.5000 Du        
   5863 ****        15.7500   4.5000  11.7500 Du        
   5864 ****        15.7500   4.5000  12.0000 Du        
   5865 ****        15.7500   4.5000  12.2500 Du        
   5866 ****        16.0000 -10.0000  -5.0000 Du        
   5867 ****        16.0000 -10.0000  -4.7500 Du        
   5868 ****        16.0000 -10.0000  -4.5000 Du        
   5869 ****        16.0000  -9.7500  -5.2500 Du        
   5870 ****        16.0000  -9.7500  -5.0000 Du        
   5871 ****        16.0000  -9.7500  -4.7500 Du        
   5872 ****        16.0000  -9.7500  -4.5000 Du        
   5873 ****        16.0000  -5.5000  -1.7500 Du        
   5874 ****        16.0000  -5.5000  -1.5000 Du        
   5875 ****        16.0000  -5.5000  -1.2500 Du        
   5876 ****        16.0000  -5.5000  -1.0000 Du        
   5877 ****        16.0000  -5.5000  -0.7500 Du        
   5878 ****        16.0000  -5.5000  -0.5000 Du        
   5879 ****        16.0000  -5.2500  -1.5000 Du        
   5880 ****        16.0000  -5.2500  -1.2500 Du        
   5881 ****        16.0000  -5.2500  -1.0000 Du        
   5882 ****        16.0000  -5.2500  -0.7500 Du        
   5883 ****        16.0000  -5.2500  -0.5000 Du        
   5884 ****        16.0000  -5.2500  -0.2500 Du        
   5885 ****        16.0000  -5.0000  -1.0000 Du        
   5886 ****        16.0000  -5.0000  -0.7500 Du        
   5887 ****        16.0000  -5.0000  -0.5000 Du        
   5888 ****        16.0000   2.7500   9.7500 Du        
   5889 ****        16.0000   2.7500  10.2500 Du        
   5890 ****        16.0000   2.7500  10.5000 Du        
   5891 ****        16.0000   2.7500  10.7500 Du        
   5892 ****        16.0000   3.0000   9.7500 Du        
   5893 ****        16.0000   3.0000  10.0000 Du        
   5894 ****        16.0000   3.0000  10.2500 Du        
   5895 ****        16.0000   3.0000  10.5000 Du        
   5896 ****        16.0000   3.0000  10.7500 Du        
   5897 ****        16.0000   3.0000  11.0000 Du        
   5898 ****        16.0000   3.0000  11.2500 Du        
   5899 ****        16.0000   3.2500  10.0000 Du        
   5900 ****        16.0000   3.2500  10.2500 Du        
   5901 ****        16.0000   3.2500  10.5000 Du        
   5902 ****        16.0000   3.2500  10.7500 Du        
   5903 ****        16.0000   3.2500  11.0000 Du        
   5904 ****        16.0000   3.2500  11.2500 Du        
   5905 ****        16.0000   3.5000  10.2500 Du        
   5906 ****        16.0000   3.5000  10.5000 Du        
   5907 ****        16.0000   3.5000  10.7500 Du        
   5908 ****        16.0000   3.5000  11.0000 Du        
   5909 ****        16.0000   3.5000  11.2500 Du        
   5910 ****        16.0000   3.5000  11.5000 Du        
   5911 ****        16.0000   3.5000  11.7500 Du        
   5912 ****        16.0000   3.7500  10.5000 Du        
   5913 ****        16.0000   3.7500  10.7500 Du        
   5914 ****        16.0000   3.7500  11.0000 Du        
   5915 ****        16.0000   3.7500  11.2500 Du        
   5916 ****        16.0000   3.7500  11.5000 Du        
   5917 ****        16.0000   3.7500  11.7500 Du        
   5918 ****        16.0000   4.0000  10.7500 Du        
   5919 ****        16.0000   4.0000  11.0000 Du        
   5920 ****        16.0000   4.0000  11.2500 Du        
   5921 ****        16.0000   4.0000  11.5000 Du        
   5922 ****        16.0000   4.0000  11.7500 Du        
   5923 ****        16.0000   4.0000  12.0000 Du        
   5924 ****        16.0000   4.0000  12.2500 Du        
   5925 ****        16.0000   4.2500  11.0000 Du        
   5926 ****        16.0000   4.2500  11.2500 Du        
   5927 ****        16.0000   4.2500  11.5000 Du        
   5928 ****        16.0000   4.2500  11.7500 Du        
   5929 ****        16.0000   4.2500  12.0000 Du        
   5930 ****        16.0000   4.2500  12.2500 Du        
   5931 ****        16.0000   4.5000  11.2500 Du        
   5932 ****        16.0000   4.5000  11.5000 Du        
   5933 ****        16.0000   4.5000  11.7500 Du        
   5934 ****        16.0000   4.5000  12.0000 Du        
   5935 ****        16.0000   4.5000  12.2500 Du        
   5936 ****        16.2500  -5.7500  -2.0000 Du        
   5937 ****        16.2500  -5.7500  -1.7500 Du        
   5938 ****        16.2500  -5.7500  -1.2500 Du        
   5939 ****        16.2500  -5.5000  -2.0000 Du        
   5940 ****        16.2500  -5.5000  -1.7500 Du        
   5941 ****        16.2500  -5.5000  -1.5000 Du        
   5942 ****        16.2500  -5.5000  -1.2500 Du        
   5943 ****        16.2500  -5.5000  -1.0000 Du        
   5944 ****        16.2500  -5.5000  -0.7500 Du        
   5945 ****        16.2500  -5.2500  -1.7500 Du        
   5946 ****        16.2500  -5.2500  -1.5000 Du        
   5947 ****        16.2500  -5.2500  -1.2500 Du        
   5948 ****        16.2500  -5.2500  -1.0000 Du        
   5949 ****        16.2500  -5.2500  -0.7500 Du        
   5950 ****        16.2500   3.0000  10.2500 Du        
   5951 ****        16.2500   3.0000  10.5000 Du        
   5952 ****        16.2500   3.0000  10.7500 Du        
   5953 ****        16.2500   3.0000  11.0000 Du        
   5954 ****        16.2500   3.2500  10.2500 Du        
   5955 ****        16.2500   3.2500  10.5000 Du        
   5956 ****        16.2500   3.2500  10.7500 Du        
   5957 ****        16.2500   3.2500  11.0000 Du        
   5958 ****        16.2500   3.2500  11.2500 Du        
   5959 ****        16.2500   3.5000  10.2500 Du        
   5960 ****        16.2500   3.5000  10.5000 Du        
   5961 ****        16.2500   3.5000  10.7500 Du        
   5962 ****        16.2500   3.5000  11.0000 Du        
   5963 ****        16.2500   3.5000  11.2500 Du        
   5964 ****        16.2500   3.5000  11.5000 Du        
   5965 ****        16.2500   3.5000  11.7500 Du        
   5966 ****        16.2500   3.7500  10.5000 Du        
   5967 ****        16.2500   3.7500  10.7500 Du        
   5968 ****        16.2500   3.7500  11.0000 Du        
   5969 ****        16.2500   3.7500  11.2500 Du        
   5970 ****        16.2500   3.7500  11.5000 Du        
   5971 ****        16.2500   3.7500  11.7500 Du        
   5972 ****        16.2500   4.0000  10.7500 Du        
   5973 ****        16.2500   4.0000  11.0000 Du        
   5974 ****        16.2500   4.0000  11.2500 Du        
   5975 ****        16.2500   4.0000  11.5000 Du        
   5976 ****        16.2500   4.0000  11.7500 Du        
   5977 ****        16.2500   4.0000  12.0000 Du        
   5978 ****        16.2500   4.2500  11.0000 Du        
   5979 ****        16.2500   4.2500  11.2500 Du        
   5980 ****        16.2500   4.2500  11.5000 Du        
   5981 ****        16.2500   4.2500  11.7500 Du        
   5982 ****        16.2500   4.2500  12.0000 Du        
   5983 ****        16.2500   4.2500  12.2500 Du        
   5984 ****        16.2500   4.5000  11.2500 Du        
   5985 ****        16.2500   4.5000  11.5000 Du        
   5986 ****        16.2500   4.5000  11.7500 Du        
   5987 ****        16.2500   4.5000  12.0000 Du        
   5988 ****        16.2500   4.5000  12.2500 Du        
   5989 ****        16.5000  -6.0000  -1.7500 Du        
   5990 ****        16.5000  -5.7500  -2.0000 Du        
   5991 ****        16.5000  -5.7500  -1.7500 Du        
   5992 ****        16.5000  -5.7500  -1.5000 Du        
   5993 ****        16.5000  -5.7500  -1.2500 Du        
   5994 ****        16.5000  -5.7500  -1.0000 Du        
   5995 ****        16.5000  -5.5000  -2.0000 Du        
   5996 ****        16.5000  -5.5000  -1.7500 Du        
   5997 ****        16.5000  -5.5000  -1.5000 Du        
   5998 ****        16.5000  -5.5000  -1.2500 Du        
   5999 ****        16.5000  -5.5000  -1.0000 Du        
   6000 ****        16.5000  -5.2500  -1.7500 Du        
   6001 ****        16.5000  -5.2500  -1.5000 Du        
   6002 ****        16.5000  -5.2500  -1.2500 Du        
   6003 ****        16.5000  -5.2500  -1.0000 Du        
   6004 ****        16.5000  -0.5000   5.0000 Du        
   6005 ****        16.5000  -0.5000   5.2500 Du        
   6006 ****        16.5000  -0.2500   5.0000 Du        
   6007 ****        16.5000  -0.2500   5.2500 Du        
   6008 ****        16.5000  -0.2500   5.7500 Du        
   6009 ****        16.5000  -0.2500   6.0000 Du        
   6010 ****        16.5000   0.0000   5.2500 Du        
   6011 ****        16.5000   0.0000   5.5000 Du        
   6012 ****        16.5000   0.0000   5.7500 Du        
   6013 ****        16.5000   0.0000   6.0000 Du        
   6014 ****        16.5000   0.0000   6.2500 Du        
   6015 ****        16.5000   0.2500   5.2500 Du        
   6016 ****        16.5000   0.2500   6.0000 Du        
   6017 ****        16.5000   0.2500   6.2500 Du        
   6018 ****        16.5000   0.5000   5.7500 Du        
   6019 ****        16.5000   0.5000   6.0000 Du        
   6020 ****        16.5000   0.5000   6.2500 Du        
   6021 ****        16.5000   0.5000   6.5000 Du        
   6022 ****        16.5000   0.7500   5.7500 Du        
   6023 ****        16.5000   0.7500   6.0000 Du        
   6024 ****        16.5000   0.7500   6.2500 Du        
   6025 ****        16.5000   0.7500   6.5000 Du        
   6026 ****        16.5000   0.7500   6.7500 Du        
   6027 ****        16.5000   1.0000   6.0000 Du        
   6028 ****        16.5000   1.0000   6.2500 Du        
   6029 ****        16.5000   1.0000   6.5000 Du        
   6030 ****        16.5000   1.0000   6.7500 Du        
   6031 ****        16.5000   1.2500   6.2500 Du        
   6032 ****        16.5000   1.2500   6.5000 Du        
   6033 ****        16.5000   1.2500   6.7500 Du        
   6034 ****        16.5000   1.5000   6.2500 Du        
   6035 ****        16.5000   1.5000   6.5000 Du        
   6036 ****        16.5000   1.5000   6.7500 Du        
   6037 ****        16.5000   1.7500   6.5000 Du        
   6038 ****        16.5000   1.7500   6.7500 Du        
   6039 ****        16.5000   3.2500  11.0000 Du        
   6040 ****        16.5000   3.2500  11.2500 Du        
   6041 ****        16.5000   3.2500  11.5000 Du        
   6042 ****        16.5000   3.5000  10.5000 Du        
   6043 ****        16.5000   3.5000  10.7500 Du        
   6044 ****        16.5000   3.5000  11.0000 Du        
   6045 ****        16.5000   3.5000  11.2500 Du        
   6046 ****        16.5000   3.5000  11.5000 Du        
   6047 ****        16.5000   3.5000  11.7500 Du        
   6048 ****        16.5000   3.5000  12.0000 Du        
   6049 ****        16.5000   3.7500  10.7500 Du        
   6050 ****        16.5000   3.7500  11.0000 Du        
   6051 ****        16.5000   3.7500  11.2500 Du        
   6052 ****        16.5000   3.7500  11.5000 Du        
   6053 ****        16.5000   3.7500  11.7500 Du        
   6054 ****        16.5000   3.7500  12.0000 Du        
   6055 ****        16.5000   3.7500  12.2500 Du        
   6056 ****        16.5000   4.0000  11.0000 Du        
   6057 ****        16.5000   4.0000  11.2500 Du        
   6058 ****        16.5000   4.0000  11.5000 Du        
   6059 ****        16.5000   4.0000  11.7500 Du        
   6060 ****        16.5000   4.0000  12.0000 Du        
   6061 ****        16.5000   4.0000  12.2500 Du        
   6062 ****        16.5000   4.2500  11.2500 Du        
   6063 ****        16.5000   4.2500  11.5000 Du        
   6064 ****        16.5000   4.2500  11.7500 Du        
   6065 ****        16.5000   4.2500  12.0000 Du        
   6066 ****        16.5000   4.2500  12.2500 Du        
   6067 ****        16.7500  -6.0000  -1.7500 Du        
   6068 ****        16.7500  -6.0000  -1.5000 Du        
   6069 ****        16.7500  -6.0000  -1.2500 Du        
   6070 ****        16.7500  -5.7500  -2.0000 Du        
   6071 ****        16.7500  -5.7500  -1.7500 Du        
   6072 ****        16.7500  -5.7500  -1.5000 Du        
   6073 ****        16.7500  -5.7500  -1.2500 Du        
   6074 ****        16.7500  -5.5000  -2.0000 Du        
   6075 ****        16.7500  -5.5000  -1.7500 Du        
   6076 ****        16.7500  -5.5000  -1.5000 Du        
   6077 ****        16.7500  -5.5000  -1.2500 Du        
   6078 ****        16.7500  -5.5000  -1.0000 Du        
   6079 ****        16.7500  -5.2500  -1.7500 Du        
   6080 ****        16.7500  -5.2500  -1.5000 Du        
   6081 ****        16.7500  -5.2500  -1.2500 Du        
   6082 ****        16.7500  -0.7500   4.7500 Du        
   6083 ****        16.7500  -0.7500   5.0000 Du        
   6084 ****        16.7500  -0.5000   4.7500 Du        
   6085 ****        16.7500  -0.5000   5.0000 Du        
   6086 ****        16.7500  -0.5000   5.2500 Du        
   6087 ****        16.7500  -0.2500   4.5000 Du        
   6088 ****        16.7500  -0.2500   4.7500 Du        
   6089 ****        16.7500  -0.2500   5.0000 Du        
   6090 ****        16.7500  -0.2500   5.2500 Du        
   6091 ****        16.7500  -0.2500   5.5000 Du        
   6092 ****        16.7500  -0.2500   5.7500 Du        
   6093 ****        16.7500  -0.2500   6.0000 Du        
   6094 ****        16.7500  -0.2500   6.2500 Du        
   6095 ****        16.7500   0.0000   4.2500 Du        
   6096 ****        16.7500   0.0000   4.5000 Du        
   6097 ****        16.7500   0.0000   4.7500 Du        
   6098 ****        16.7500   0.0000   5.0000 Du        
   6099 ****        16.7500   0.0000   5.2500 Du        
   6100 ****        16.7500   0.0000   5.5000 Du        
   6101 ****        16.7500   0.0000   5.7500 Du        
   6102 ****        16.7500   0.0000   6.0000 Du        
   6103 ****        16.7500   0.0000   6.2500 Du        
   6104 ****        16.7500   0.0000   6.5000 Du        
   6105 ****        16.7500   0.2500   4.5000 Du        
   6106 ****        16.7500   0.2500   4.7500 Du        
   6107 ****        16.7500   0.2500   5.0000 Du        
   6108 ****        16.7500   0.2500   5.2500 Du        
   6109 ****        16.7500   0.2500   5.5000 Du        
   6110 ****        16.7500   0.2500   5.7500 Du        
   6111 ****        16.7500   0.2500   6.0000 Du        
   6112 ****        16.7500   0.2500   6.2500 Du        
   6113 ****        16.7500   0.2500   6.5000 Du        
   6114 ****        16.7500   0.5000   4.7500 Du        
   6115 ****        16.7500   0.5000   5.0000 Du        
   6116 ****        16.7500   0.5000   5.2500 Du        
   6117 ****        16.7500   0.5000   5.5000 Du        
   6118 ****        16.7500   0.5000   5.7500 Du        
   6119 ****        16.7500   0.5000   6.0000 Du        
   6120 ****        16.7500   0.5000   6.2500 Du        
   6121 ****        16.7500   0.5000   6.5000 Du        
   6122 ****        16.7500   0.7500   5.0000 Du        
   6123 ****        16.7500   0.7500   5.2500 Du        
   6124 ****        16.7500   0.7500   5.5000 Du        
   6125 ****        16.7500   0.7500   5.7500 Du        
   6126 ****        16.7500   0.7500   6.0000 Du        
   6127 ****        16.7500   0.7500   6.2500 Du        
   6128 ****        16.7500   0.7500   6.5000 Du        
   6129 ****        16.7500   1.0000   5.0000 Du        
   6130 ****        16.7500   1.0000   5.2500 Du        
   6131 ****        16.7500   1.0000   5.5000 Du        
   6132 ****        16.7500   1.0000   5.7500 Du        
   6133 ****        16.7500   1.0000   6.0000 Du        
   6134 ****        16.7500   1.0000   6.2500 Du        
   6135 ****        16.7500   1.0000   6.5000 Du        
   6136 ****        16.7500   1.0000   6.7500 Du        
   6137 ****        16.7500   1.2500   5.5000 Du        
   6138 ****        16.7500   1.2500   5.7500 Du        
   6139 ****        16.7500   1.2500   6.0000 Du        
   6140 ****        16.7500   1.2500   6.2500 Du        
   6141 ****        16.7500   1.2500   6.5000 Du        
   6142 ****        16.7500   1.2500   6.7500 Du        
   6143 ****        16.7500   1.5000   5.7500 Du        
   6144 ****        16.7500   1.5000   6.0000 Du        
   6145 ****        16.7500   1.5000   6.2500 Du        
   6146 ****        16.7500   1.5000   6.5000 Du        
   6147 ****        16.7500   1.5000   6.7500 Du        
   6148 ****        16.7500   1.7500   6.0000 Du        
   6149 ****        16.7500   1.7500   6.2500 Du        
   6150 ****        16.7500   1.7500   6.5000 Du        
   6151 ****        16.7500   1.7500   6.7500 Du        
   6152 ****        16.7500   2.0000   6.2500 Du        
   6153 ****        16.7500   2.0000   6.5000 Du        
   6154 ****        16.7500   2.0000   6.7500 Du        
   6155 ****        16.7500   3.5000  10.7500 Du        
   6156 ****        16.7500   3.5000  11.0000 Du        
   6157 ****        16.7500   3.5000  11.2500 Du        
   6158 ****        16.7500   3.5000  11.5000 Du        
   6159 ****        16.7500   3.5000  11.7500 Du        
   6160 ****        16.7500   3.5000  12.0000 Du        
   6161 ****        16.7500   3.5000  12.2500 Du        
   6162 ****        16.7500   3.7500  10.7500 Du        
   6163 ****        16.7500   3.7500  11.0000 Du        
   6164 ****        16.7500   3.7500  11.2500 Du        
   6165 ****        16.7500   3.7500  11.5000 Du        
   6166 ****        16.7500   3.7500  11.7500 Du        
   6167 ****        16.7500   3.7500  12.0000 Du        
   6168 ****        16.7500   3.7500  12.2500 Du        
   6169 ****        16.7500   3.7500  12.5000 Du        
   6170 ****        16.7500   4.0000  11.0000 Du        
   6171 ****        16.7500   4.0000  11.2500 Du        
   6172 ****        16.7500   4.0000  11.5000 Du        
   6173 ****        16.7500   4.0000  11.7500 Du        
   6174 ****        16.7500   4.0000  12.0000 Du        
   6175 ****        16.7500   4.0000  12.2500 Du        
   6176 ****        16.7500   4.0000  12.5000 Du        
   6177 ****        16.7500   4.2500  11.2500 Du        
   6178 ****        16.7500   4.2500  11.5000 Du        
   6179 ****        16.7500   4.2500  11.7500 Du        
   6180 ****        16.7500   4.2500  12.0000 Du        
   6181 ****        16.7500   4.2500  12.2500 Du        
   6182 ****        17.0000  -6.0000  -1.7500 Du        
   6183 ****        17.0000  -6.0000  -1.5000 Du        
   6184 ****        17.0000  -5.7500  -2.0000 Du        
   6185 ****        17.0000  -5.7500  -1.7500 Du        
   6186 ****        17.0000  -5.7500  -1.5000 Du        
   6187 ****        17.0000  -5.5000  -2.0000 Du        
   6188 ****        17.0000  -5.5000  -1.7500 Du        
   6189 ****        17.0000  -5.5000  -1.5000 Du        
   6190 ****        17.0000  -5.2500  -2.0000 Du        
   6191 ****        17.0000  -5.2500  -1.7500 Du        
   6192 ****        17.0000  -0.7500   5.0000 Du        
   6193 ****        17.0000  -0.5000   4.7500 Du        
   6194 ****        17.0000  -0.5000   5.0000 Du        
   6195 ****        17.0000  -0.5000   5.2500 Du        
   6196 ****        17.0000  -0.2500   4.5000 Du        
   6197 ****        17.0000  -0.2500   4.7500 Du        
   6198 ****        17.0000  -0.2500   5.0000 Du        
   6199 ****        17.0000  -0.2500   5.2500 Du        
   6200 ****        17.0000  -0.2500   5.5000 Du        
   6201 ****        17.0000  -0.2500   5.7500 Du        
   6202 ****        17.0000  -0.2500   6.0000 Du        
   6203 ****        17.0000  -0.2500   6.2500 Du        
   6204 ****        17.0000   0.0000   4.2500 Du        
   6205 ****        17.0000   0.0000   4.5000 Du        
   6206 ****        17.0000   0.0000   4.7500 Du        
   6207 ****        17.0000   0.0000   5.0000 Du        
   6208 ****        17.0000   0.0000   5.2500 Du        
   6209 ****        17.0000   0.0000   5.5000 Du        
   6210 ****        17.0000   0.0000   5.7500 Du        
   6211 ****        17.0000   0.0000   6.0000 Du        
   6212 ****        17.0000   0.0000   6.2500 Du        
   6213 ****        17.0000   0.2500   4.2500 Du        
   6214 ****        17.0000   0.2500   4.5000 Du        
   6215 ****        17.0000   0.2500   4.7500 Du        
   6216 ****        17.0000   0.2500   5.0000 Du        
   6217 ****        17.0000   0.2500   5.2500 Du        
   6218 ****        17.0000   0.2500   5.5000 Du        
   6219 ****        17.0000   0.2500   5.7500 Du        
   6220 ****        17.0000   0.2500   6.0000 Du        
   6221 ****        17.0000   0.2500   6.2500 Du        
   6222 ****        17.0000   0.2500   6.5000 Du        
   6223 ****        17.0000   0.5000   4.0000 Du        
   6224 ****        17.0000   0.5000   4.2500 Du        
   6225 ****        17.0000   0.5000   4.5000 Du        
   6226 ****        17.0000   0.5000   4.7500 Du        
   6227 ****        17.0000   0.5000   5.0000 Du        
   6228 ****        17.0000   0.5000   5.2500 Du        
   6229 ****        17.0000   0.5000   5.5000 Du        
   6230 ****        17.0000   0.5000   5.7500 Du        
   6231 ****        17.0000   0.5000   6.0000 Du        
   6232 ****        17.0000   0.5000   6.2500 Du        
   6233 ****        17.0000   0.5000   6.5000 Du        
   6234 ****        17.0000   0.7500   4.2500 Du        
   6235 ****        17.0000   0.7500   4.5000 Du        
   6236 ****        17.0000   0.7500   4.7500 Du        
   6237 ****        17.0000   0.7500   5.0000 Du        
   6238 ****        17.0000   0.7500   5.2500 Du        
   6239 ****        17.0000   0.7500   5.5000 Du        
   6240 ****        17.0000   0.7500   5.7500 Du        
   6241 ****        17.0000   0.7500   6.0000 Du        
   6242 ****        17.0000   0.7500   6.2500 Du        
   6243 ****        17.0000   0.7500   6.5000 Du        
   6244 ****        17.0000   1.0000   4.7500 Du        
   6245 ****        17.0000   1.0000   5.0000 Du        
   6246 ****        17.0000   1.0000   5.2500 Du        
   6247 ****        17.0000   1.0000   5.5000 Du        
   6248 ****        17.0000   1.0000   5.7500 Du        
   6249 ****        17.0000   1.0000   6.0000 Du        
   6250 ****        17.0000   1.0000   6.2500 Du        
   6251 ****        17.0000   1.0000   6.5000 Du        
   6252 ****        17.0000   1.2500   5.0000 Du        
   6253 ****        17.0000   1.2500   5.2500 Du        
   6254 ****        17.0000   1.2500   5.5000 Du        
   6255 ****        17.0000   1.2500   5.7500 Du        
   6256 ****        17.0000   1.2500   6.0000 Du        
   6257 ****        17.0000   1.2500   6.2500 Du        
   6258 ****        17.0000   1.2500   6.5000 Du        
   6259 ****        17.0000   1.5000   5.2500 Du        
   6260 ****        17.0000   1.5000   5.5000 Du        
   6261 ****        17.0000   1.5000   5.7500 Du        
   6262 ****        17.0000   1.5000   6.0000 Du        
   6263 ****        17.0000   1.5000   6.2500 Du        
   6264 ****        17.0000   1.5000   6.5000 Du        
   6265 ****        17.0000   1.7500   5.5000 Du        
   6266 ****        17.0000   1.7500   5.7500 Du        
   6267 ****        17.0000   1.7500   6.0000 Du        
   6268 ****        17.0000   1.7500   6.2500 Du        
   6269 ****        17.0000   1.7500   6.5000 Du        
   6270 ****        17.0000   2.0000   5.7500 Du        
   6271 ****        17.0000   2.0000   6.0000 Du        
   6272 ****        17.0000   2.0000   6.2500 Du        
   6273 ****        17.0000   2.0000   6.5000 Du        
   6274 ****        17.0000   2.2500   6.2500 Du        
   6275 ****        17.0000   3.5000  11.5000 Du        
   6276 ****        17.0000   3.5000  11.7500 Du        
   6277 ****        17.0000   3.5000  12.0000 Du        
   6278 ****        17.0000   3.5000  12.2500 Du        
   6279 ****        17.0000   3.7500  11.0000 Du        
   6280 ****        17.0000   3.7500  11.2500 Du        
   6281 ****        17.0000   3.7500  11.5000 Du        
   6282 ****        17.0000   3.7500  11.7500 Du        
   6283 ****        17.0000   3.7500  12.0000 Du        
   6284 ****        17.0000   3.7500  12.2500 Du        
   6285 ****        17.0000   3.7500  12.5000 Du        
   6286 ****        17.0000   3.7500  12.7500 Du        
   6287 ****        17.0000   4.0000  11.0000 Du        
   6288 ****        17.0000   4.0000  11.2500 Du        
   6289 ****        17.0000   4.0000  11.5000 Du        
   6290 ****        17.0000   4.0000  11.7500 Du        
   6291 ****        17.0000   4.0000  12.0000 Du        
   6292 ****        17.0000   4.0000  12.2500 Du        
   6293 ****        17.0000   4.0000  12.5000 Du        
   6294 ****        17.0000   4.0000  12.7500 Du        
   6295 ****        17.0000   4.2500  11.7500 Du        
   6296 ****        17.0000   4.2500  12.0000 Du        
   6297 ****        17.0000   4.2500  12.2500 Du        
   6298 ****        17.2500  -5.7500  -1.7500 Du        
   6299 ****        17.2500  -5.5000  -2.0000 Du        
   6300 ****        17.2500  -5.5000  -1.7500 Du        
   6301 ****        17.2500  -0.5000   4.7500 Du        
   6302 ****        17.2500  -0.5000   5.0000 Du        
   6303 ****        17.2500  -0.2500   4.2500 Du        
   6304 ****        17.2500  -0.2500   4.5000 Du        
   6305 ****        17.2500  -0.2500   4.7500 Du        
   6306 ****        17.2500  -0.2500   5.0000 Du        
   6307 ****        17.2500  -0.2500   5.2500 Du        
   6308 ****        17.2500  -0.2500   5.5000 Du        
   6309 ****        17.2500  -0.2500   6.0000 Du        
   6310 ****        17.2500  -0.2500   6.2500 Du        
   6311 ****        17.2500   0.0000   4.2500 Du        
   6312 ****        17.2500   0.0000   4.5000 Du        
   6313 ****        17.2500   0.0000   4.7500 Du        
   6314 ****        17.2500   0.0000   5.0000 Du        
   6315 ****        17.2500   0.0000   5.2500 Du        
   6316 ****        17.2500   0.0000   5.5000 Du        
   6317 ****        17.2500   0.0000   5.7500 Du        
   6318 ****        17.2500   0.0000   6.0000 Du        
   6319 ****        17.2500   0.0000   6.2500 Du        
   6320 ****        17.2500   0.2500   4.0000 Du        
   6321 ****        17.2500   0.2500   4.2500 Du        
   6322 ****        17.2500   0.2500   4.5000 Du        
   6323 ****        17.2500   0.2500   4.7500 Du        
   6324 ****        17.2500   0.2500   5.0000 Du        
   6325 ****        17.2500   0.2500   5.2500 Du        
   6326 ****        17.2500   0.2500   5.5000 Du        
   6327 ****        17.2500   0.2500   5.7500 Du        
   6328 ****        17.2500   0.2500   6.0000 Du        
   6329 ****        17.2500   0.2500   6.2500 Du        
   6330 ****        17.2500   0.2500   6.5000 Du        
   6331 ****        17.2500   0.5000   4.0000 Du        
   6332 ****        17.2500   0.5000   4.2500 Du        
   6333 ****        17.2500   0.5000   4.5000 Du        
   6334 ****        17.2500   0.5000   4.7500 Du        
   6335 ****        17.2500   0.5000   5.0000 Du        
   6336 ****        17.2500   0.5000   5.2500 Du        
   6337 ****        17.2500   0.5000   5.5000 Du        
   6338 ****        17.2500   0.5000   5.7500 Du        
   6339 ****        17.2500   0.5000   6.0000 Du        
   6340 ****        17.2500   0.5000   6.2500 Du        
   6341 ****        17.2500   0.5000   6.5000 Du        
   6342 ****        17.2500   0.7500   4.0000 Du        
   6343 ****        17.2500   0.7500   4.2500 Du        
   6344 ****        17.2500   0.7500   4.5000 Du        
   6345 ****        17.2500   0.7500   4.7500 Du        
   6346 ****        17.2500   0.7500   5.0000 Du        
   6347 ****        17.2500   0.7500   5.2500 Du        
   6348 ****        17.2500   0.7500   5.5000 Du        
   6349 ****        17.2500   0.7500   5.7500 Du        
   6350 ****        17.2500   0.7500   6.0000 Du        
   6351 ****        17.2500   0.7500   6.2500 Du        
   6352 ****        17.2500   0.7500   6.5000 Du        
   6353 ****        17.2500   1.0000   4.2500 Du        
   6354 ****        17.2500   1.0000   4.5000 Du        
   6355 ****        17.2500   1.0000   4.7500 Du        
   6356 ****        17.2500   1.0000   5.0000 Du        
   6357 ****        17.2500   1.0000   5.2500 Du        
   6358 ****        17.2500   1.0000   5.5000 Du        
   6359 ****        17.2500   1.0000   5.7500 Du        
   6360 ****        17.2500   1.0000   6.0000 Du        
   6361 ****        17.2500   1.0000   6.2500 Du        
   6362 ****        17.2500   1.0000   6.5000 Du        
   6363 ****        17.2500   1.2500   4.7500 Du        
   6364 ****        17.2500   1.2500   5.0000 Du        
   6365 ****        17.2500   1.2500   5.2500 Du        
   6366 ****        17.2500   1.2500   5.5000 Du        
   6367 ****        17.2500   1.2500   5.7500 Du        
   6368 ****        17.2500   1.2500   6.0000 Du        
   6369 ****        17.2500   1.2500   6.2500 Du        
   6370 ****        17.2500   1.2500   6.5000 Du        
   6371 ****        17.2500   1.5000   5.0000 Du        
   6372 ****        17.2500   1.5000   5.2500 Du        
   6373 ****        17.2500   1.5000   5.5000 Du        
   6374 ****        17.2500   1.5000   5.7500 Du        
   6375 ****        17.2500   1.5000   6.0000 Du        
   6376 ****        17.2500   1.5000   6.2500 Du        
   6377 ****        17.2500   1.5000   6.5000 Du        
   6378 ****        17.2500   1.7500   5.2500 Du        
   6379 ****        17.2500   1.7500   5.5000 Du        
   6380 ****        17.2500   1.7500   5.7500 Du        
   6381 ****        17.2500   1.7500   6.0000 Du        
   6382 ****        17.2500   1.7500   6.2500 Du        
   6383 ****        17.2500   1.7500   6.5000 Du        
   6384 ****        17.2500   2.0000   5.2500 Du        
   6385 ****        17.2500   2.0000   5.5000 Du        
   6386 ****        17.2500   2.0000   5.7500 Du        
   6387 ****        17.2500   2.0000   6.0000 Du        
   6388 ****        17.2500   2.0000   6.2500 Du        
   6389 ****        17.2500   2.0000   6.5000 Du        
   6390 ****        17.2500   2.2500   5.7500 Du        
   6391 ****        17.2500   2.2500   6.0000 Du        
   6392 ****        17.2500   2.2500   6.2500 Du        
   6393 ****        17.2500   3.7500  11.7500 Du        
   6394 ****        17.2500   3.7500  12.0000 Du        
   6395 ****        17.2500   3.7500  12.2500 Du        
   6396 ****        17.2500   4.0000  11.5000 Du        
   6397 ****        17.2500   4.0000  11.7500 Du        
   6398 ****        17.2500   4.0000  12.0000 Du        
   6399 ****        17.2500   4.0000  12.2500 Du        
   6400 ****        17.2500   4.0000  12.5000 Du        
   6401 ****        17.2500   4.0000  12.7500 Du        
   6402 ****        17.2500   4.2500  12.0000 Du        
   6403 ****        17.2500   4.2500  12.2500 Du        
   6404 ****        17.5000  -6.0000  -1.7500 Du        
   6405 ****        17.5000  -0.5000   4.7500 Du        
   6406 ****        17.5000  -0.2500   4.2500 Du        
   6407 ****        17.5000  -0.2500   4.5000 Du        
   6408 ****        17.5000  -0.2500   4.7500 Du        
   6409 ****        17.5000  -0.2500   5.0000 Du        
   6410 ****        17.5000  -0.2500   5.2500 Du        
   6411 ****        17.5000   0.0000   4.2500 Du        
   6412 ****        17.5000   0.0000   4.5000 Du        
   6413 ****        17.5000   0.0000   4.7500 Du        
   6414 ****        17.5000   0.0000   5.0000 Du        
   6415 ****        17.5000   0.0000   5.2500 Du        
   6416 ****        17.5000   0.0000   5.5000 Du        
   6417 ****        17.5000   0.0000   5.7500 Du        
   6418 ****        17.5000   0.0000   6.0000 Du        
   6419 ****        17.5000   0.0000   6.2500 Du        
   6420 ****        17.5000   0.2500   4.0000 Du        
   6421 ****        17.5000   0.2500   4.2500 Du        
   6422 ****        17.5000   0.2500   4.5000 Du        
   6423 ****        17.5000   0.2500   4.7500 Du        
   6424 ****        17.5000   0.2500   5.0000 Du        
   6425 ****        17.5000   0.2500   5.2500 Du        
   6426 ****        17.5000   0.2500   5.5000 Du        
   6427 ****        17.5000   0.2500   5.7500 Du        
   6428 ****        17.5000   0.2500   6.0000 Du        
   6429 ****        17.5000   0.2500   6.2500 Du        
   6430 ****        17.5000   0.5000   3.7500 Du        
   6431 ****        17.5000   0.5000   4.0000 Du        
   6432 ****        17.5000   0.5000   4.2500 Du        
   6433 ****        17.5000   0.5000   4.5000 Du        
   6434 ****        17.5000   0.5000   4.7500 Du        
   6435 ****        17.5000   0.5000   5.0000 Du        
   6436 ****        17.5000   0.5000   5.2500 Du        
   6437 ****        17.5000   0.5000   5.5000 Du        
   6438 ****        17.5000   0.5000   5.7500 Du        
   6439 ****        17.5000   0.5000   6.0000 Du        
   6440 ****        17.5000   0.5000   6.2500 Du        
   6441 ****        17.5000   0.7500   3.7500 Du        
   6442 ****        17.5000   0.7500   4.0000 Du        
   6443 ****        17.5000   0.7500   4.2500 Du        
   6444 ****        17.5000   0.7500   4.5000 Du        
   6445 ****        17.5000   0.7500   4.7500 Du        
   6446 ****        17.5000   0.7500   5.0000 Du        
   6447 ****        17.5000   0.7500   5.2500 Du        
   6448 ****        17.5000   0.7500   5.5000 Du        
   6449 ****        17.5000   0.7500   5.7500 Du        
   6450 ****        17.5000   0.7500   6.0000 Du        
   6451 ****        17.5000   0.7500   6.2500 Du        
   6452 ****        17.5000   1.0000   4.0000 Du        
   6453 ****        17.5000   1.0000   4.2500 Du        
   6454 ****        17.5000   1.0000   4.5000 Du        
   6455 ****        17.5000   1.0000   4.7500 Du        
   6456 ****        17.5000   1.0000   5.0000 Du        
   6457 ****        17.5000   1.0000   5.2500 Du        
   6458 ****        17.5000   1.0000   5.5000 Du        
   6459 ****        17.5000   1.0000   5.7500 Du        
   6460 ****        17.5000   1.0000   6.0000 Du        
   6461 ****        17.5000   1.0000   6.2500 Du        
   6462 ****        17.5000   1.2500   4.7500 Du        
   6463 ****        17.5000   1.2500   5.0000 Du        
   6464 ****        17.5000   1.2500   5.2500 Du        
   6465 ****        17.5000   1.2500   5.5000 Du        
   6466 ****        17.5000   1.2500   5.7500 Du        
   6467 ****        17.5000   1.2500   6.0000 Du        
   6468 ****        17.5000   1.2500   6.2500 Du        
   6469 ****        17.5000   1.5000   4.7500 Du        
   6470 ****        17.5000   1.5000   5.0000 Du        
   6471 ****        17.5000   1.5000   5.2500 Du        
   6472 ****        17.5000   1.5000   5.5000 Du        
   6473 ****        17.5000   1.5000   5.7500 Du        
   6474 ****        17.5000   1.5000   6.0000 Du        
   6475 ****        17.5000   1.5000   6.2500 Du        
   6476 ****        17.5000   1.7500   5.0000 Du        
   6477 ****        17.5000   1.7500   5.2500 Du        
   6478 ****        17.5000   1.7500   5.5000 Du        
   6479 ****        17.5000   1.7500   5.7500 Du        
   6480 ****        17.5000   1.7500   6.0000 Du        
   6481 ****        17.5000   1.7500   6.2500 Du        
   6482 ****        17.5000   2.0000   5.2500 Du        
   6483 ****        17.5000   2.0000   5.5000 Du        
   6484 ****        17.5000   2.0000   5.7500 Du        
   6485 ****        17.5000   2.0000   6.0000 Du        
   6486 ****        17.5000   2.0000   6.2500 Du        
   6487 ****        17.5000   2.2500   5.5000 Du        
   6488 ****        17.5000   2.2500   5.7500 Du        
   6489 ****        17.5000   2.2500   6.0000 Du        
   6490 ****        17.5000   2.2500   6.2500 Du        
   6491 ****        17.5000   2.5000   5.7500 Du        
   6492 ****        17.5000   2.5000   6.0000 Du        
   6493 ****        17.5000   3.7500  12.2500 Du        
   6494 ****        17.5000   4.0000  12.0000 Du        
   6495 ****        17.5000   4.0000  12.2500 Du        
   6496 ****        17.5000   4.0000  12.5000 Du        
   6497 ****        17.5000   4.0000  12.7500 Du        
   6498 ****        17.5000   4.0000  13.0000 Du        
   6499 ****        17.5000   4.0000  13.2500 Du        
   6500 ****        17.7500  -0.2500   4.2500 Du        
   6501 ****        17.7500  -0.2500   4.5000 Du        
   6502 ****        17.7500  -0.2500   4.7500 Du        
   6503 ****        17.7500  -0.2500   5.0000 Du        
   6504 ****        17.7500   0.0000   4.0000 Du        
   6505 ****        17.7500   0.0000   4.2500 Du        
   6506 ****        17.7500   0.0000   4.5000 Du        
   6507 ****        17.7500   0.0000   4.7500 Du        
   6508 ****        17.7500   0.0000   5.0000 Du        
   6509 ****        17.7500   0.0000   5.2500 Du        
   6510 ****        17.7500   0.0000   5.5000 Du        
   6511 ****        17.7500   0.0000   5.7500 Du        
   6512 ****        17.7500   0.0000   6.0000 Du        
   6513 ****        17.7500   0.0000   6.2500 Du        
   6514 ****        17.7500   0.2500   4.0000 Du        
   6515 ****        17.7500   0.2500   4.2500 Du        
   6516 ****        17.7500   0.2500   4.5000 Du        
   6517 ****        17.7500   0.2500   4.7500 Du        
   6518 ****        17.7500   0.2500   5.0000 Du        
   6519 ****        17.7500   0.2500   5.2500 Du        
   6520 ****        17.7500   0.2500   5.5000 Du        
   6521 ****        17.7500   0.2500   5.7500 Du        
   6522 ****        17.7500   0.2500   6.0000 Du        
   6523 ****        17.7500   0.2500   6.2500 Du        
   6524 ****        17.7500   0.5000   3.7500 Du        
   6525 ****        17.7500   0.5000   4.0000 Du        
   6526 ****        17.7500   0.5000   4.2500 Du        
   6527 ****        17.7500   0.5000   4.5000 Du        
   6528 ****        17.7500   0.5000   4.7500 Du        
   6529 ****        17.7500   0.5000   5.0000 Du        
   6530 ****        17.7500   0.5000   5.2500 Du        
   6531 ****        17.7500   0.5000   5.5000 Du        
   6532 ****        17.7500   0.5000   5.7500 Du        
   6533 ****        17.7500   0.5000   6.0000 Du        
   6534 ****        17.7500   0.5000   6.2500 Du        
   6535 ****        17.7500   0.7500   3.7500 Du        
   6536 ****        17.7500   0.7500   4.0000 Du        
   6537 ****        17.7500   0.7500   4.2500 Du        
   6538 ****        17.7500   0.7500   4.5000 Du        
   6539 ****        17.7500   0.7500   4.7500 Du        
   6540 ****        17.7500   0.7500   5.0000 Du        
   6541 ****        17.7500   0.7500   5.2500 Du        
   6542 ****        17.7500   0.7500   5.5000 Du        
   6543 ****        17.7500   0.7500   5.7500 Du        
   6544 ****        17.7500   0.7500   6.0000 Du        
   6545 ****        17.7500   0.7500   6.2500 Du        
   6546 ****        17.7500   1.0000   4.2500 Du        
   6547 ****        17.7500   1.0000   4.5000 Du        
   6548 ****        17.7500   1.0000   4.7500 Du        
   6549 ****        17.7500   1.0000   5.0000 Du        
   6550 ****        17.7500   1.0000   5.2500 Du        
   6551 ****        17.7500   1.0000   5.5000 Du        
   6552 ****        17.7500   1.0000   5.7500 Du        
   6553 ****        17.7500   1.0000   6.0000 Du        
   6554 ****        17.7500   1.0000   6.2500 Du        
   6555 ****        17.7500   1.2500   4.7500 Du        
   6556 ****        17.7500   1.2500   5.0000 Du        
   6557 ****        17.7500   1.2500   5.2500 Du        
   6558 ****        17.7500   1.2500   5.5000 Du        
   6559 ****        17.7500   1.2500   5.7500 Du        
   6560 ****        17.7500   1.2500   6.0000 Du        
   6561 ****        17.7500   1.2500   6.2500 Du        
   6562 ****        17.7500   1.5000   5.0000 Du        
   6563 ****        17.7500   1.5000   5.2500 Du        
   6564 ****        17.7500   1.5000   5.5000 Du        
   6565 ****        17.7500   1.5000   5.7500 Du        
   6566 ****        17.7500   1.5000   6.0000 Du        
   6567 ****        17.7500   1.5000   6.2500 Du        
   6568 ****        17.7500   1.7500   5.2500 Du        
   6569 ****        17.7500   1.7500   5.5000 Du        
   6570 ****        17.7500   1.7500   5.7500 Du        
   6571 ****        17.7500   1.7500   6.0000 Du        
   6572 ****        17.7500   1.7500   6.2500 Du        
   6573 ****        17.7500   2.0000   5.5000 Du        
   6574 ****        17.7500   2.0000   5.7500 Du        
   6575 ****        17.7500   2.0000   6.0000 Du        
   6576 ****        17.7500   2.0000   6.2500 Du        
   6577 ****        17.7500   2.2500   5.7500 Du        
   6578 ****        17.7500   2.2500   6.0000 Du        
   6579 ****        18.0000  -0.2500   4.2500 Du        
   6580 ****        18.0000  -0.2500   4.5000 Du        
   6581 ****        18.0000   0.0000   4.0000 Du        
   6582 ****        18.0000   0.0000   4.2500 Du        
   6583 ****        18.0000   0.0000   4.5000 Du        
   6584 ****        18.0000   0.0000   4.7500 Du        
   6585 ****        18.0000   0.0000   5.0000 Du        
   6586 ****        18.0000   0.0000   5.2500 Du        
   6587 ****        18.0000   0.2500   3.7500 Du        
   6588 ****        18.0000   0.2500   4.0000 Du        
   6589 ****        18.0000   0.2500   4.2500 Du        
   6590 ****        18.0000   0.2500   4.5000 Du        
   6591 ****        18.0000   0.2500   4.7500 Du        
   6592 ****        18.0000   0.2500   5.0000 Du        
   6593 ****        18.0000   0.2500   5.2500 Du        
   6594 ****        18.0000   0.2500   5.5000 Du        
   6595 ****        18.0000   0.2500   5.7500 Du        
   6596 ****        18.0000   0.2500   6.0000 Du        
   6597 ****        18.0000   0.2500   6.2500 Du        
   6598 ****        18.0000   0.5000   3.7500 Du        
   6599 ****        18.0000   0.5000   4.0000 Du        
   6600 ****        18.0000   0.5000   4.2500 Du        
   6601 ****        18.0000   0.5000   4.5000 Du        
   6602 ****        18.0000   0.5000   4.7500 Du        
   6603 ****        18.0000   0.5000   5.0000 Du        
   6604 ****        18.0000   0.5000   5.2500 Du        
   6605 ****        18.0000   0.5000   5.5000 Du        
   6606 ****        18.0000   0.5000   5.7500 Du        
   6607 ****        18.0000   0.5000   6.0000 Du        
   6608 ****        18.0000   0.5000   6.2500 Du        
   6609 ****        18.0000   0.7500   3.7500 Du        
   6610 ****        18.0000   0.7500   4.0000 Du        
   6611 ****        18.0000   0.7500   4.2500 Du        
   6612 ****        18.0000   0.7500   4.5000 Du        
   6613 ****        18.0000   0.7500   4.7500 Du        
   6614 ****        18.0000   0.7500   5.0000 Du        
   6615 ****        18.0000   0.7500   5.2500 Du        
   6616 ****        18.0000   0.7500   5.5000 Du        
   6617 ****        18.0000   0.7500   5.7500 Du        
   6618 ****        18.0000   0.7500   6.0000 Du        
   6619 ****        18.0000   0.7500   6.2500 Du        
   6620 ****        18.0000   1.0000   4.2500 Du        
   6621 ****        18.0000   1.0000   4.5000 Du        
   6622 ****        18.0000   1.0000   4.7500 Du        
   6623 ****        18.0000   1.0000   5.0000 Du        
   6624 ****        18.0000   1.0000   5.2500 Du        
   6625 ****        18.0000   1.0000   5.5000 Du        
   6626 ****        18.0000   1.0000   5.7500 Du        
   6627 ****        18.0000   1.0000   6.0000 Du        
   6628 ****        18.0000   1.0000   6.2500 Du        
   6629 ****        18.0000   1.2500   4.7500 Du        
   6630 ****        18.0000   1.2500   5.0000 Du        
   6631 ****        18.0000   1.2500   5.2500 Du        
   6632 ****        18.0000   1.2500   5.5000 Du        
   6633 ****        18.0000   1.2500   5.7500 Du        
   6634 ****        18.0000   1.2500   6.0000 Du        
   6635 ****        18.0000   1.2500   6.2500 Du        
   6636 ****        18.0000   1.5000   5.0000 Du        
   6637 ****        18.0000   1.5000   5.2500 Du        
   6638 ****        18.0000   1.5000   5.5000 Du        
   6639 ****        18.0000   1.5000   5.7500 Du        
   6640 ****        18.0000   1.5000   6.0000 Du        
   6641 ****        18.0000   1.7500   5.2500 Du        
   6642 ****        18.0000   1.7500   5.5000 Du        
   6643 ****        18.0000   1.7500   5.7500 Du        
   6644 ****        18.0000   1.7500   6.0000 Du        
   6645 ****        18.0000   2.0000   5.5000 Du        
   6646 ****        18.0000   2.0000   5.7500 Du        
   6647 ****        18.0000   2.0000   6.0000 Du        
   6648 ****        18.2500   0.0000   4.0000 Du        
   6649 ****        18.2500   0.0000   4.2500 Du        
   6650 ****        18.2500   0.0000   4.5000 Du        
   6651 ****        18.2500   0.0000   4.7500 Du        
   6652 ****        18.2500   0.2500   3.7500 Du        
   6653 ****        18.2500   0.2500   4.0000 Du        
   6654 ****        18.2500   0.2500   4.2500 Du        
   6655 ****        18.2500   0.2500   4.5000 Du        
   6656 ****        18.2500   0.2500   4.7500 Du        
   6657 ****        18.2500   0.2500   5.0000 Du        
   6658 ****        18.2500   0.2500   5.2500 Du        
   6659 ****        18.2500   0.2500   5.5000 Du        
   6660 ****        18.2500   0.2500   5.7500 Du        
   6661 ****        18.2500   0.2500   6.0000 Du        
   6662 ****        18.2500   0.5000   3.7500 Du        
   6663 ****        18.2500   0.5000   4.0000 Du        
   6664 ****        18.2500   0.5000   4.2500 Du        
   6665 ****        18.2500   0.5000   4.5000 Du        
   6666 ****        18.2500   0.5000   4.7500 Du        
   6667 ****        18.2500   0.5000   5.0000 Du        
   6668 ****        18.2500   0.5000   5.2500 Du        
   6669 ****        18.2500   0.5000   5.5000 Du        
   6670 ****        18.2500   0.5000   5.7500 Du        
   6671 ****        18.2500   0.5000   6.0000 Du        
   6672 ****        18.2500   0.5000   6.2500 Du        
   6673 ****        18.2500   0.7500   4.0000 Du        
   6674 ****        18.2500   0.7500   4.2500 Du        
   6675 ****        18.2500   0.7500   4.5000 Du        
   6676 ****        18.2500   0.7500   4.7500 Du        
   6677 ****        18.2500   0.7500   5.0000 Du        
   6678 ****        18.2500   0.7500   5.2500 Du        
   6679 ****        18.2500   0.7500   5.5000 Du        
   6680 ****        18.2500   0.7500   5.7500 Du        
   6681 ****        18.2500   0.7500   6.0000 Du        
   6682 ****        18.2500   0.7500   6.2500 Du        
   6683 ****        18.2500   1.0000   4.5000 Du        
   6684 ****        18.2500   1.0000   4.7500 Du        
   6685 ****        18.2500   1.0000   5.0000 Du        
   6686 ****        18.2500   1.0000   5.2500 Du        
   6687 ****        18.2500   1.0000   5.5000 Du        
   6688 ****        18.2500   1.0000   5.7500 Du        
   6689 ****        18.2500   1.0000   6.0000 Du        
   6690 ****        18.2500   1.0000   6.2500 Du        
   6691 ****        18.2500   1.2500   5.0000 Du        
   6692 ****        18.2500   1.2500   5.2500 Du        
   6693 ****        18.2500   1.2500   5.5000 Du        
   6694 ****        18.2500   1.2500   5.7500 Du        
   6695 ****        18.2500   1.2500   6.0000 Du        
   6696 ****        18.2500   1.5000   5.2500 Du        
   6697 ****        18.2500   1.5000   5.5000 Du        
   6698 ****        18.2500   1.5000   5.7500 Du        
   6699 ****        18.2500   1.5000   6.0000 Du        
   6700 ****        18.2500   1.7500   5.5000 Du        
   6701 ****        18.2500   1.7500   5.7500 Du        
   6702 ****        18.2500   1.7500   6.0000 Du        
   6703 ****        18.2500   2.0000   5.7500 Du        
   6704 ****        18.5000   0.0000   3.7500 Du        
   6705 ****        18.5000   0.0000   4.0000 Du        
   6706 ****        18.5000   0.0000   4.2500 Du        
   6707 ****        18.5000   0.0000   4.5000 Du        
   6708 ****        18.5000   0.2500   3.7500 Du        
   6709 ****        18.5000   0.2500   4.0000 Du        
   6710 ****        18.5000   0.2500   4.2500 Du        
   6711 ****        18.5000   0.2500   4.5000 Du        
   6712 ****        18.5000   0.2500   4.7500 Du        
   6713 ****        18.5000   0.2500   5.0000 Du        
   6714 ****        18.5000   0.2500   5.2500 Du        
   6715 ****        18.5000   0.2500   5.5000 Du        
   6716 ****        18.5000   0.5000   3.7500 Du        
   6717 ****        18.5000   0.5000   4.0000 Du        
   6718 ****        18.5000   0.5000   4.2500 Du        
   6719 ****        18.5000   0.5000   4.5000 Du        
   6720 ****        18.5000   0.5000   4.7500 Du        
   6721 ****        18.5000   0.5000   5.0000 Du        
   6722 ****        18.5000   0.5000   5.2500 Du        
   6723 ****        18.5000   0.5000   5.5000 Du        
   6724 ****        18.5000   0.5000   5.7500 Du        
   6725 ****        18.5000   0.5000   6.0000 Du        
   6726 ****        18.5000   0.5000   6.2500 Du        
   6727 ****        18.5000   0.7500   4.2500 Du        
   6728 ****        18.5000   0.7500   4.5000 Du        
   6729 ****        18.5000   0.7500   4.7500 Du        
   6730 ****        18.5000   0.7500   5.0000 Du        
   6731 ****        18.5000   0.7500   5.2500 Du        
   6732 ****        18.5000   0.7500   5.5000 Du        
   6733 ****        18.5000   0.7500   5.7500 Du        
   6734 ****        18.5000   0.7500   6.0000 Du        
   6735 ****        18.5000   0.7500   6.2500 Du        
   6736 ****        18.5000   1.0000   4.7500 Du        
   6737 ****        18.5000   1.0000   5.0000 Du        
   6738 ****        18.5000   1.0000   5.2500 Du        
   6739 ****        18.5000   1.0000   5.5000 Du        
   6740 ****        18.5000   1.0000   5.7500 Du        
   6741 ****        18.5000   1.0000   6.0000 Du        
   6742 ****        18.5000   1.2500   5.0000 Du        
   6743 ****        18.5000   1.2500   5.2500 Du        
   6744 ****        18.5000   1.2500   5.5000 Du        
   6745 ****        18.5000   1.2500   5.7500 Du        
   6746 ****        18.5000   1.2500   6.0000 Du        
   6747 ****        18.5000   1.5000   5.2500 Du        
   6748 ****        18.5000   1.5000   5.5000 Du        
   6749 ****        18.5000   1.5000   5.7500 Du        
   6750 ****        18.5000   1.5000   6.0000 Du        
   6751 ****        18.5000   1.7500   5.5000 Du        
   6752 ****        18.5000   1.7500   5.7500 Du        
   6753 ****        18.7500  -9.7500  -3.0000 Du        
   6754 ****        18.7500  -9.2500  -3.7500 Du        
   6755 ****        18.7500   0.0000   4.0000 Du        
   6756 ****        18.7500   0.2500   3.7500 Du        
   6757 ****        18.7500   0.2500   4.0000 Du        
   6758 ****        18.7500   0.2500   4.2500 Du        
   6759 ****        18.7500   0.2500   4.5000 Du        
   6760 ****        18.7500   0.2500   4.7500 Du        
   6761 ****        18.7500   0.5000   3.7500 Du        
   6762 ****        18.7500   0.5000   4.0000 Du        
   6763 ****        18.7500   0.5000   4.2500 Du        
   6764 ****        18.7500   0.5000   4.5000 Du        
   6765 ****        18.7500   0.5000   4.7500 Du        
   6766 ****        18.7500   0.5000   5.0000 Du        
   6767 ****        18.7500   0.5000   5.2500 Du        
   6768 ****        18.7500   0.5000   5.5000 Du        
   6769 ****        18.7500   0.5000   5.7500 Du        
   6770 ****        18.7500   0.5000   6.0000 Du        
   6771 ****        18.7500   0.7500   4.2500 Du        
   6772 ****        18.7500   0.7500   4.5000 Du        
   6773 ****        18.7500   0.7500   4.7500 Du        
   6774 ****        18.7500   0.7500   5.0000 Du        
   6775 ****        18.7500   0.7500   5.2500 Du        
   6776 ****        18.7500   0.7500   5.5000 Du        
   6777 ****        18.7500   0.7500   5.7500 Du        
   6778 ****        18.7500   0.7500   6.0000 Du        
   6779 ****        18.7500   0.7500   6.2500 Du        
   6780 ****        18.7500   1.0000   4.7500 Du        
   6781 ****        18.7500   1.0000   5.0000 Du        
   6782 ****        18.7500   1.0000   5.2500 Du        
   6783 ****        18.7500   1.0000   5.5000 Du        
   6784 ****        18.7500   1.0000   5.7500 Du        
   6785 ****        18.7500   1.0000   6.0000 Du        
   6786 ****        18.7500   1.2500   5.2500 Du        
   6787 ****        18.7500   1.2500   5.5000 Du        
   6788 ****        18.7500   1.2500   5.7500 Du        
   6789 ****        18.7500   1.2500   6.0000 Du        
   6790 ****        18.7500   1.5000   5.5000 Du        
   6791 ****        18.7500   1.5000   5.7500 Du        
   6792 ****        18.7500   4.0000  15.0000 Du        
   6793 ****        18.7500   4.0000  15.2500 Du        
   6794 ****        18.7500   4.2500  14.7500 Du        
   6795 ****        18.7500   4.2500  15.0000 Du        
   6796 ****        18.7500   4.2500  15.2500 Du        
   6797 ****        18.7500   4.5000  14.7500 Du        
   6798 ****        18.7500   4.5000  15.0000 Du        
   6799 ****        19.0000  -9.7500  -3.7500 Du        
   6800 ****        19.0000  -9.7500  -3.2500 Du        
   6801 ****        19.0000  -9.7500  -3.0000 Du        
   6802 ****        19.0000  -9.7500  -2.7500 Du        
   6803 ****        19.0000  -9.5000  -4.0000 Du        
   6804 ****        19.0000  -9.5000  -3.7500 Du        
   6805 ****        19.0000  -9.5000  -3.2500 Du        
   6806 ****        19.0000  -9.2500  -4.0000 Du        
   6807 ****        19.0000  -9.2500  -3.7500 Du        
   6808 ****        19.0000  -9.2500  -3.2500 Du        
   6809 ****        19.0000  -9.2500  -3.0000 Du        
   6810 ****        19.0000  -9.0000  -3.2500 Du        
   6811 ****        19.0000   0.5000   4.2500 Du        
   6812 ****        19.0000   0.5000   4.5000 Du        
   6813 ****        19.0000   0.5000   4.7500 Du        
   6814 ****        19.0000   0.5000   5.0000 Du        
   6815 ****        19.0000   0.5000   5.2500 Du        
   6816 ****        19.0000   0.5000   5.5000 Du        
   6817 ****        19.0000   0.5000   5.7500 Du        
   6818 ****        19.0000   0.5000   6.0000 Du        
   6819 ****        19.0000   0.7500   4.5000 Du        
   6820 ****        19.0000   0.7500   4.7500 Du        
   6821 ****        19.0000   0.7500   5.0000 Du        
   6822 ****        19.0000   0.7500   5.2500 Du        
   6823 ****        19.0000   0.7500   5.5000 Du        
   6824 ****        19.0000   0.7500   5.7500 Du        
   6825 ****        19.0000   0.7500   6.0000 Du        
   6826 ****        19.0000   1.0000   5.0000 Du        
   6827 ****        19.0000   1.0000   5.2500 Du        
   6828 ****        19.0000   1.0000   5.5000 Du        
   6829 ****        19.0000   1.0000   5.7500 Du        
   6830 ****        19.0000   1.0000   6.0000 Du        
   6831 ****        19.0000   1.2500   5.2500 Du        
   6832 ****        19.0000   1.2500   5.5000 Du        
   6833 ****        19.0000   1.2500   5.7500 Du        
   6834 ****        19.0000   1.2500   6.0000 Du        
   6835 ****        19.0000   1.5000   5.5000 Du        
   6836 ****        19.0000   1.5000   5.7500 Du        
   6837 ****        19.0000   4.0000  15.0000 Du        
   6838 ****        19.0000   4.0000  15.2500 Du        
   6839 ****        19.0000   4.2500  14.7500 Du        
   6840 ****        19.0000   4.2500  15.0000 Du        
   6841 ****        19.0000   4.2500  15.2500 Du        
   6842 ****        19.0000   4.5000  14.7500 Du        
   6843 ****        19.0000   4.5000  15.0000 Du        
   6844 ****        19.0000   4.5000  15.2500 Du        
   6845 ****        19.0000   4.7500  14.7500 Du        
   6846 ****        19.0000   4.7500  15.0000 Du        
   6847 ****        19.0000   4.7500  15.2500 Du        
   6848 ****        19.0000   5.0000  15.0000 Du        
   6849 ****        19.0000   5.0000  15.2500 Du        
   6850 ****        19.0000   8.7500  15.7500 Du        
   6851 ****        19.0000   8.7500  16.0000 Du        
   6852 ****        19.0000   9.0000  15.7500 Du        
   6853 ****        19.0000   9.0000  16.0000 Du        
   6854 ****        19.0000   9.2500  16.0000 Du        
   6855 ****        19.0000  12.0000  16.0000 Du        
   6856 ****        19.0000  12.2500  16.0000 Du        
   6857 ****        19.0000  12.2500  16.2500 Du        
   6858 ****        19.2500 -10.0000  -3.0000 Du        
   6859 ****        19.2500 -10.0000  -2.7500 Du        
   6860 ****        19.2500 -10.0000  -2.5000 Du        
   6861 ****        19.2500  -9.7500  -3.7500 Du        
   6862 ****        19.2500  -9.7500  -3.2500 Du        
   6863 ****        19.2500  -9.7500  -3.0000 Du        
   6864 ****        19.2500  -9.7500  -2.7500 Du        
   6865 ****        19.2500  -9.7500  -2.5000 Du        
   6866 ****        19.2500  -9.5000  -4.2500 Du        
   6867 ****        19.2500  -9.5000  -4.0000 Du        
   6868 ****        19.2500  -9.5000  -3.7500 Du        
   6869 ****        19.2500  -9.5000  -3.2500 Du        
   6870 ****        19.2500  -9.5000  -3.0000 Du        
   6871 ****        19.2500  -9.2500  -4.2500 Du        
   6872 ****        19.2500  -9.2500  -4.0000 Du        
   6873 ****        19.2500  -9.2500  -3.7500 Du        
   6874 ****        19.2500  -9.2500  -3.2500 Du        
   6875 ****        19.2500  -9.2500  -3.0000 Du        
   6876 ****        19.2500  -9.0000  -4.0000 Du        
   6877 ****        19.2500  -9.0000  -3.7500 Du        
   6878 ****        19.2500  -9.0000  -3.2500 Du        
   6879 ****        19.2500  -9.0000  -3.0000 Du        
   6880 ****        19.2500   0.7500   5.0000 Du        
   6881 ****        19.2500   0.7500   5.2500 Du        
   6882 ****        19.2500   0.7500   5.5000 Du        
   6883 ****        19.2500   0.7500   5.7500 Du        
   6884 ****        19.2500   0.7500   6.0000 Du        
   6885 ****        19.2500   1.0000   5.0000 Du        
   6886 ****        19.2500   1.0000   5.2500 Du        
   6887 ****        19.2500   1.0000   5.5000 Du        
   6888 ****        19.2500   1.0000   5.7500 Du        
   6889 ****        19.2500   1.0000   6.0000 Du        
   6890 ****        19.2500   1.2500   5.2500 Du        
   6891 ****        19.2500   1.2500   5.5000 Du        
   6892 ****        19.2500   1.2500   5.7500 Du        
   6893 ****        19.2500   1.2500   6.0000 Du        
   6894 ****        19.2500   1.5000   5.7500 Du        
   6895 ****        19.2500   4.0000  15.0000 Du        
   6896 ****        19.2500   4.0000  15.2500 Du        
   6897 ****        19.2500   4.2500  14.7500 Du        
   6898 ****        19.2500   4.2500  15.0000 Du        
   6899 ****        19.2500   4.2500  15.2500 Du        
   6900 ****        19.2500   4.2500  15.5000 Du        
   6901 ****        19.2500   4.5000  14.7500 Du        
   6902 ****        19.2500   4.5000  15.0000 Du        
   6903 ****        19.2500   4.5000  15.2500 Du        
   6904 ****        19.2500   4.7500  14.7500 Du        
   6905 ****        19.2500   4.7500  15.0000 Du        
   6906 ****        19.2500   4.7500  15.2500 Du        
   6907 ****        19.2500   5.0000  15.0000 Du        
   6908 ****        19.2500   5.0000  15.2500 Du        
   6909 ****        19.2500   5.2500  15.2500 Du        
   6910 ****        19.2500   8.5000  15.7500 Du        
   6911 ****        19.2500   8.5000  16.0000 Du        
   6912 ****        19.2500   8.7500  15.7500 Du        
   6913 ****        19.2500   8.7500  16.0000 Du        
   6914 ****        19.2500   9.0000  15.7500 Du        
   6915 ****        19.2500   9.0000  16.0000 Du        
   6916 ****        19.2500   9.0000  16.2500 Du        
   6917 ****        19.2500   9.2500  15.7500 Du        
   6918 ****        19.2500   9.2500  16.0000 Du        
   6919 ****        19.2500   9.2500  16.2500 Du        
   6920 ****        19.2500   9.5000  15.7500 Du        
   6921 ****        19.2500   9.5000  16.0000 Du        
   6922 ****        19.2500   9.5000  16.2500 Du        
   6923 ****        19.2500   9.7500  16.0000 Du        
   6924 ****        19.2500   9.7500  16.2500 Du        
   6925 ****        19.2500  10.0000  16.0000 Du        
   6926 ****        19.2500  10.0000  16.2500 Du        
   6927 ****        19.2500  10.2500  16.0000 Du        
   6928 ****        19.2500  11.7500  16.0000 Du        
   6929 ****        19.2500  11.7500  16.2500 Du        
   6930 ****        19.2500  12.0000  15.7500 Du        
   6931 ****        19.2500  12.0000  16.0000 Du        
   6932 ****        19.2500  12.0000  16.2500 Du        
   6933 ****        19.2500  12.2500  15.7500 Du        
   6934 ****        19.2500  12.2500  16.0000 Du        
   6935 ****        19.2500  12.2500  16.2500 Du        
   6936 ****        19.2500  12.5000  15.7500 Du        
   6937 ****        19.2500  12.5000  16.0000 Du        
   6938 ****        19.2500  12.5000  16.2500 Du        
   6939 ****        19.5000 -10.2500  -2.5000 Du        
   6940 ****        19.5000 -10.2500  -2.2500 Du        
   6941 ****        19.5000 -10.0000  -3.0000 Du        
   6942 ****        19.5000 -10.0000  -2.7500 Du        
   6943 ****        19.5000 -10.0000  -2.5000 Du        
   6944 ****        19.5000 -10.0000  -2.2500 Du        
   6945 ****        19.5000 -10.0000  -2.0000 Du        
   6946 ****        19.5000  -9.7500  -3.7500 Du        
   6947 ****        19.5000  -9.7500  -3.5000 Du        
   6948 ****        19.5000  -9.7500  -3.2500 Du        
   6949 ****        19.5000  -9.7500  -3.0000 Du        
   6950 ****        19.5000  -9.7500  -2.7500 Du        
   6951 ****        19.5000  -9.7500  -2.5000 Du        
   6952 ****        19.5000  -9.7500  -2.2500 Du        
   6953 ****        19.5000  -9.5000  -3.5000 Du        
   6954 ****        19.5000  -9.5000  -3.2500 Du        
   6955 ****        19.5000  -9.2500  -5.0000 Du        
   6956 ****        19.5000  -9.2500  -4.7500 Du        
   6957 ****        19.5000  -9.2500  -4.5000 Du        
   6958 ****        19.5000  -9.2500  -4.2500 Du        
   6959 ****        19.5000  -9.2500  -4.0000 Du        
   6960 ****        19.5000  -9.2500  -3.7500 Du        
   6961 ****        19.5000  -9.2500  -3.5000 Du        
   6962 ****        19.5000  -9.2500  -3.2500 Du        
   6963 ****        19.5000  -9.0000  -4.5000 Du        
   6964 ****        19.5000  -9.0000  -4.2500 Du        
   6965 ****        19.5000  -9.0000  -4.0000 Du        
   6966 ****        19.5000  -9.0000  -3.7500 Du        
   6967 ****        19.5000  -9.0000  -3.5000 Du        
   6968 ****        19.5000  -9.0000  -3.2500 Du        
   6969 ****        19.5000  -9.0000  -3.0000 Du        
   6970 ****        19.5000  -8.7500  -4.0000 Du        
   6971 ****        19.5000  -8.7500  -3.7500 Du        
   6972 ****        19.5000  -8.7500  -3.5000 Du        
   6973 ****        19.5000  -8.7500  -3.2500 Du        
   6974 ****        19.5000  -8.7500  -3.0000 Du        
   6975 ****        19.5000   1.0000   5.2500 Du        
   6976 ****        19.5000   1.0000   5.5000 Du        
   6977 ****        19.5000   1.0000   5.7500 Du        
   6978 ****        19.5000   1.0000   6.0000 Du        
   6979 ****        19.5000   1.2500   5.5000 Du        
   6980 ****        19.5000   1.2500   5.7500 Du        
   6981 ****        19.5000   3.7500  15.7500 Du        
   6982 ****        19.5000   3.7500  16.0000 Du        
   6983 ****        19.5000   3.7500  16.2500 Du        
   6984 ****        19.5000   4.0000  15.2500 Du        
   6985 ****        19.5000   4.0000  15.5000 Du        
   6986 ****        19.5000   4.0000  15.7500 Du        
   6987 ****        19.5000   4.0000  16.0000 Du        
   6988 ****        19.5000   4.2500  14.7500 Du        
   6989 ****        19.5000   4.2500  15.0000 Du        
   6990 ****        19.5000   4.2500  15.2500 Du        
   6991 ****        19.5000   4.2500  15.5000 Du        
   6992 ****        19.5000   4.2500  15.7500 Du        
   6993 ****        19.5000   4.5000  14.7500 Du        
   6994 ****        19.5000   4.5000  15.0000 Du        
   6995 ****        19.5000   4.5000  15.2500 Du        
   6996 ****        19.5000   4.5000  15.5000 Du        
   6997 ****        19.5000   4.5000  15.7500 Du        
   6998 ****        19.5000   4.7500  14.7500 Du        
   6999 ****        19.5000   4.7500  15.0000 Du        
   7000 ****        19.5000   4.7500  15.2500 Du        
   7001 ****        19.5000   4.7500  15.5000 Du        
   7002 ****        19.5000   5.0000  14.7500 Du        
   7003 ****        19.5000   5.0000  15.0000 Du        
   7004 ****        19.5000   5.0000  15.2500 Du        
   7005 ****        19.5000   5.2500  15.0000 Du        
   7006 ****        19.5000   5.2500  15.2500 Du        
   7007 ****        19.5000   5.5000  15.2500 Du        
   7008 ****        19.5000   5.7500  15.2500 Du        
   7009 ****        19.5000   7.7500  16.0000 Du        
   7010 ****        19.5000   8.0000  16.0000 Du        
   7011 ****        19.5000   8.2500  15.7500 Du        
   7012 ****        19.5000   8.2500  16.0000 Du        
   7013 ****        19.5000   8.2500  16.2500 Du        
   7014 ****        19.5000   8.5000  15.7500 Du        
   7015 ****        19.5000   8.5000  16.0000 Du        
   7016 ****        19.5000   8.5000  16.2500 Du        
   7017 ****        19.5000   8.7500  15.7500 Du        
   7018 ****        19.5000   8.7500  16.0000 Du        
   7019 ****        19.5000   8.7500  16.2500 Du        
   7020 ****        19.5000   9.0000  15.7500 Du        
   7021 ****        19.5000   9.0000  16.0000 Du        
   7022 ****        19.5000   9.0000  16.2500 Du        
   7023 ****        19.5000   9.2500  15.7500 Du        
   7024 ****        19.5000   9.2500  16.0000 Du        
   7025 ****        19.5000   9.2500  16.2500 Du        
   7026 ****        19.5000   9.5000  15.7500 Du        
   7027 ****        19.5000   9.5000  16.0000 Du        
   7028 ****        19.5000   9.5000  16.2500 Du        
   7029 ****        19.5000   9.7500  15.7500 Du        
   7030 ****        19.5000   9.7500  16.0000 Du        
   7031 ****        19.5000   9.7500  16.2500 Du        
   7032 ****        19.5000  10.0000  16.0000 Du        
   7033 ****        19.5000  10.0000  16.2500 Du        
   7034 ****        19.5000  10.2500  16.0000 Du        
   7035 ****        19.5000  10.2500  16.2500 Du        
   7036 ****        19.5000  10.5000  16.0000 Du        
   7037 ****        19.5000  10.5000  16.2500 Du        
   7038 ****        19.5000  10.7500  16.0000 Du        
   7039 ****        19.5000  10.7500  16.2500 Du        
   7040 ****        19.5000  11.0000  16.0000 Du        
   7041 ****        19.5000  11.0000  16.2500 Du        
   7042 ****        19.5000  11.2500  16.0000 Du        
   7043 ****        19.5000  11.2500  16.2500 Du        
   7044 ****        19.5000  11.5000  16.0000 Du        
   7045 ****        19.5000  11.5000  16.2500 Du        
   7046 ****        19.5000  11.7500  16.0000 Du        
   7047 ****        19.5000  12.0000  15.7500 Du        
   7048 ****        19.5000  12.0000  16.0000 Du        
   7049 ****        19.5000  12.0000  16.2500 Du        
   7050 ****        19.5000  12.2500  15.5000 Du        
   7051 ****        19.5000  12.2500  15.7500 Du        
   7052 ****        19.5000  12.2500  16.0000 Du        
   7053 ****        19.5000  12.2500  16.2500 Du        
   7054 ****        19.5000  12.5000  15.2500 Du        
   7055 ****        19.5000  12.5000  15.5000 Du        
   7056 ****        19.5000  12.5000  15.7500 Du        
   7057 ****        19.5000  12.5000  16.0000 Du        
   7058 ****        19.5000  12.5000  16.2500 Du        
   7059 ****        19.7500 -11.0000  -2.2500 Du        
   7060 ****        19.7500 -10.7500  -2.5000 Du        
   7061 ****        19.7500 -10.7500  -2.2500 Du        
   7062 ****        19.7500 -10.7500  -2.0000 Du        
   7063 ****        19.7500 -10.5000  -2.5000 Du        
   7064 ****        19.7500 -10.5000  -2.2500 Du        
   7065 ****        19.7500 -10.5000  -2.0000 Du        
   7066 ****        19.7500 -10.2500  -7.7500 Du        
   7067 ****        19.7500 -10.2500  -7.5000 Du        
   7068 ****        19.7500 -10.2500  -2.7500 Du        
   7069 ****        19.7500 -10.2500  -2.5000 Du        
   7070 ****        19.7500 -10.2500  -2.2500 Du        
   7071 ****        19.7500 -10.2500  -2.0000 Du        
   7072 ****        19.7500 -10.0000  -7.7500 Du        
   7073 ****        19.7500 -10.0000  -7.5000 Du        
   7074 ****        19.7500 -10.0000  -7.2500 Du        
   7075 ****        19.7500 -10.0000  -3.2500 Du        
   7076 ****        19.7500 -10.0000  -3.0000 Du        
   7077 ****        19.7500 -10.0000  -2.7500 Du        
   7078 ****        19.7500 -10.0000  -2.5000 Du        
   7079 ****        19.7500 -10.0000  -2.2500 Du        
   7080 ****        19.7500 -10.0000  -2.0000 Du        
   7081 ****        19.7500  -9.7500  -7.5000 Du        
   7082 ****        19.7500  -9.7500  -7.2500 Du        
   7083 ****        19.7500  -9.7500  -7.0000 Du        
   7084 ****        19.7500  -9.7500  -3.7500 Du        
   7085 ****        19.7500  -9.7500  -3.5000 Du        
   7086 ****        19.7500  -9.7500  -3.2500 Du        
   7087 ****        19.7500  -9.7500  -3.0000 Du        
   7088 ****        19.7500  -9.7500  -2.7500 Du        
   7089 ****        19.7500  -9.5000  -4.2500 Du        
   7090 ****        19.7500  -9.5000  -4.0000 Du        
   7091 ****        19.7500  -9.5000  -3.7500 Du        
   7092 ****        19.7500  -9.5000  -3.5000 Du        
   7093 ****        19.7500  -9.5000  -3.2500 Du        
   7094 ****        19.7500  -9.2500  -5.2500 Du        
   7095 ****        19.7500  -9.2500  -5.0000 Du        
   7096 ****        19.7500  -9.2500  -4.7500 Du        
   7097 ****        19.7500  -9.2500  -4.5000 Du        
   7098 ****        19.7500  -9.2500  -4.2500 Du        
   7099 ****        19.7500  -9.2500  -4.0000 Du        
   7100 ****        19.7500  -9.2500  -3.7500 Du        
   7101 ****        19.7500  -9.2500  -3.5000 Du        
   7102 ****        19.7500  -9.2500  -3.2500 Du        
   7103 ****        19.7500  -9.2500  -3.0000 Du        
   7104 ****        19.7500  -9.0000  -5.0000 Du        
   7105 ****        19.7500  -9.0000  -4.7500 Du        
   7106 ****        19.7500  -9.0000  -4.5000 Du        
   7107 ****        19.7500  -9.0000  -4.2500 Du        
   7108 ****        19.7500  -9.0000  -4.0000 Du        
   7109 ****        19.7500  -9.0000  -3.7500 Du        
   7110 ****        19.7500  -9.0000  -3.5000 Du        
   7111 ****        19.7500  -9.0000  -3.2500 Du        
   7112 ****        19.7500  -9.0000  -3.0000 Du        
   7113 ****        19.7500  -8.7500  -4.2500 Du        
   7114 ****        19.7500  -8.7500  -4.0000 Du        
   7115 ****        19.7500  -8.7500  -3.7500 Du        
   7116 ****        19.7500  -8.7500  -3.5000 Du        
   7117 ****        19.7500  -8.7500  -3.2500 Du        
   7118 ****        19.7500  -8.7500  -3.0000 Du        
   7119 ****        19.7500  -8.5000  -4.0000 Du        
   7120 ****        19.7500  -8.5000  -3.7500 Du        
   7121 ****        19.7500  -8.2500  -3.5000 Du        
   7122 ****        19.7500  -8.2500  -3.2500 Du        
   7123 ****        19.7500  -8.2500  -3.0000 Du        
   7124 ****        19.7500  -8.2500  -2.7500 Du        
   7125 ****        19.7500  -8.0000  -3.2500 Du        
   7126 ****        19.7500  -8.0000  -3.0000 Du        
   7127 ****        19.7500  -8.0000  -2.7500 Du        
   7128 ****        19.7500  -7.7500  -3.0000 Du        
   7129 ****        19.7500  -7.7500  -2.7500 Du        
   7130 ****        19.7500  -7.2500  -2.2500 Du        
   7131 ****        19.7500   3.7500  15.7500 Du        
   7132 ****        19.7500   3.7500  16.0000 Du        
   7133 ****        19.7500   4.0000  15.2500 Du        
   7134 ****        19.7500   4.0000  15.5000 Du        
   7135 ****        19.7500   4.0000  15.7500 Du        
   7136 ****        19.7500   4.0000  16.0000 Du        
   7137 ****        19.7500   4.2500  15.0000 Du        
   7138 ****        19.7500   4.2500  15.2500 Du        
   7139 ****        19.7500   4.2500  15.5000 Du        
   7140 ****        19.7500   4.2500  15.7500 Du        
   7141 ****        19.7500   4.2500  16.0000 Du        
   7142 ****        19.7500   4.5000  14.7500 Du        
   7143 ****        19.7500   4.5000  15.0000 Du        
   7144 ****        19.7500   4.5000  15.2500 Du        
   7145 ****        19.7500   4.5000  15.5000 Du        
   7146 ****        19.7500   4.7500  14.7500 Du        
   7147 ****        19.7500   4.7500  15.0000 Du        
   7148 ****        19.7500   4.7500  15.2500 Du        
   7149 ****        19.7500   4.7500  15.5000 Du        
   7150 ****        19.7500   5.0000  14.7500 Du        
   7151 ****        19.7500   5.0000  15.0000 Du        
   7152 ****        19.7500   5.0000  15.2500 Du        
   7153 ****        19.7500   5.2500  15.0000 Du        
   7154 ****        19.7500   5.2500  15.2500 Du        
   7155 ****        19.7500   5.5000  15.2500 Du        
   7156 ****        19.7500   8.0000  16.0000 Du        
   7157 ****        19.7500   8.0000  16.2500 Du        
   7158 ****        19.7500   8.2500  16.0000 Du        
   7159 ****        19.7500   8.2500  16.2500 Du        
   7160 ****        19.7500   8.5000  16.0000 Du        
   7161 ****        19.7500   8.5000  16.2500 Du        
   7162 ****        19.7500   8.7500  16.0000 Du        
   7163 ****        19.7500   8.7500  16.2500 Du        
   7164 ****        19.7500   9.0000  16.0000 Du        
   7165 ****        19.7500   9.0000  16.2500 Du        
   7166 ****        19.7500   9.2500  15.7500 Du        
   7167 ****        19.7500   9.2500  16.0000 Du        
   7168 ****        19.7500   9.2500  16.2500 Du        
   7169 ****        19.7500   9.5000  15.7500 Du        
   7170 ****        19.7500   9.5000  16.0000 Du        
   7171 ****        19.7500   9.5000  16.2500 Du        
   7172 ****        19.7500   9.5000  16.5000 Du        
   7173 ****        19.7500   9.7500  15.7500 Du        
   7174 ****        19.7500   9.7500  16.0000 Du        
   7175 ****        19.7500   9.7500  16.2500 Du        
   7176 ****        19.7500   9.7500  16.5000 Du        
   7177 ****        19.7500  10.0000  16.0000 Du        
   7178 ****        19.7500  10.0000  16.2500 Du        
   7179 ****        19.7500  10.0000  16.5000 Du        
   7180 ****        19.7500  10.2500  16.0000 Du        
   7181 ****        19.7500  10.2500  16.2500 Du        
   7182 ****        19.7500  10.5000  16.0000 Du        
   7183 ****        19.7500  10.5000  16.2500 Du        
   7184 ****        19.7500  10.5000  16.5000 Du        
   7185 ****        19.7500  10.7500  16.0000 Du        
   7186 ****        19.7500  10.7500  16.2500 Du        
   7187 ****        19.7500  10.7500  16.5000 Du        
   7188 ****        19.7500  11.0000  16.0000 Du        
   7189 ****        19.7500  11.0000  16.2500 Du        
   7190 ****        19.7500  11.0000  16.5000 Du        
   7191 ****        19.7500  11.2500  16.0000 Du        
   7192 ****        19.7500  11.2500  16.2500 Du        
   7193 ****        19.7500  11.5000  16.2500 Du        
   7194 ****        19.7500  11.7500  16.0000 Du        
   7195 ****        19.7500  11.7500  16.2500 Du        
   7196 ****        19.7500  12.0000  15.7500 Du        
   7197 ****        19.7500  12.0000  16.0000 Du        
   7198 ****        19.7500  12.0000  16.2500 Du        
   7199 ****        19.7500  12.2500  15.7500 Du        
   7200 ****        19.7500  12.2500  16.0000 Du        
   7201 ****        19.7500  12.2500  16.2500 Du        
   7202 ****        19.7500  12.5000  15.2500 Du        
   7203 ****        19.7500  12.5000  15.5000 Du        
   7204 ****        19.7500  12.5000  15.7500 Du        
   7205 ****        19.7500  12.5000  16.0000 Du        
   7206 ****        19.7500  12.5000  16.2500 Du        
   7207 ****        20.0000 -12.7500  13.0000 Du        
   7208 ****        20.0000 -12.2500  12.7500 Du        
   7209 ****        20.0000 -12.2500  13.0000 Du        
   7210 ****        20.0000 -12.0000  12.7500 Du        
   7211 ****        20.0000 -12.0000  13.0000 Du        
   7212 ****        20.0000 -11.7500  13.0000 Du        
   7213 ****        20.0000 -11.5000  -2.2500 Du        
   7214 ****        20.0000 -11.5000  -2.0000 Du        
   7215 ****        20.0000 -11.2500  -2.5000 Du        
   7216 ****        20.0000 -11.2500  -2.2500 Du        
   7217 ****        20.0000 -11.2500  -2.0000 Du        
   7218 ****        20.0000 -11.0000  -2.5000 Du        
   7219 ****        20.0000 -11.0000  -2.2500 Du        
   7220 ****        20.0000 -11.0000  -2.0000 Du        
   7221 ****        20.0000 -11.0000  -1.7500 Du        
   7222 ****        20.0000 -10.7500  -2.7500 Du        
   7223 ****        20.0000 -10.7500  -2.5000 Du        
   7224 ****        20.0000 -10.7500  -2.2500 Du        
   7225 ****        20.0000 -10.7500  -2.0000 Du        
   7226 ****        20.0000 -10.7500  -1.7500 Du        
   7227 ****        20.0000 -10.5000  -8.0000 Du        
   7228 ****        20.0000 -10.5000  -7.7500 Du        
   7229 ****        20.0000 -10.5000  -2.7500 Du        
   7230 ****        20.0000 -10.5000  -2.5000 Du        
   7231 ****        20.0000 -10.5000  -2.2500 Du        
   7232 ****        20.0000 -10.5000  -2.0000 Du        
   7233 ****        20.0000 -10.5000  -1.7500 Du        
   7234 ****        20.0000 -10.2500  -8.0000 Du        
   7235 ****        20.0000 -10.2500  -7.7500 Du        
   7236 ****        20.0000 -10.2500  -7.5000 Du        
   7237 ****        20.0000 -10.2500  -3.0000 Du        
   7238 ****        20.0000 -10.2500  -2.7500 Du        
   7239 ****        20.0000 -10.2500  -2.5000 Du        
   7240 ****        20.0000 -10.2500  -2.2500 Du        
   7241 ****        20.0000 -10.2500  -2.0000 Du        
   7242 ****        20.0000 -10.2500  -1.7500 Du        
   7243 ****        20.0000 -10.0000  -7.7500 Du        
   7244 ****        20.0000 -10.0000  -7.5000 Du        
   7245 ****        20.0000 -10.0000  -7.2500 Du        
   7246 ****        20.0000 -10.0000  -3.2500 Du        
   7247 ****        20.0000 -10.0000  -3.0000 Du        
   7248 ****        20.0000 -10.0000  -2.7500 Du        
   7249 ****        20.0000 -10.0000  -2.5000 Du        
   7250 ****        20.0000 -10.0000  -2.2500 Du        
   7251 ****        20.0000 -10.0000  -2.0000 Du        
   7252 ****        20.0000 -10.0000  -1.7500 Du        
   7253 ****        20.0000  -9.7500  -7.7500 Du        
   7254 ****        20.0000  -9.7500  -7.5000 Du        
   7255 ****        20.0000  -9.7500  -7.2500 Du        
   7256 ****        20.0000  -9.7500  -7.0000 Du        
   7257 ****        20.0000  -9.7500  -6.7500 Du        
   7258 ****        20.0000  -9.7500  -4.0000 Du        
   7259 ****        20.0000  -9.7500  -3.7500 Du        
   7260 ****        20.0000  -9.7500  -3.5000 Du        
   7261 ****        20.0000  -9.7500  -3.2500 Du        
   7262 ****        20.0000  -9.7500  -3.0000 Du        
   7263 ****        20.0000  -9.7500  -2.7500 Du        
   7264 ****        20.0000  -9.7500  -2.5000 Du        
   7265 ****        20.0000  -9.7500  -2.2500 Du        
   7266 ****        20.0000  -9.5000  -7.2500 Du        
   7267 ****        20.0000  -9.5000  -7.0000 Du        
   7268 ****        20.0000  -9.5000  -6.7500 Du        
   7269 ****        20.0000  -9.5000  -4.2500 Du        
   7270 ****        20.0000  -9.5000  -4.0000 Du        
   7271 ****        20.0000  -9.5000  -3.7500 Du        
   7272 ****        20.0000  -9.5000  -3.5000 Du        
   7273 ****        20.0000  -9.5000  -3.2500 Du        
   7274 ****        20.0000  -9.5000  -3.0000 Du        
   7275 ****        20.0000  -9.2500  -6.0000 Du        
   7276 ****        20.0000  -9.2500  -5.7500 Du        
   7277 ****        20.0000  -9.2500  -5.5000 Du        
   7278 ****        20.0000  -9.2500  -5.2500 Du        
   7279 ****        20.0000  -9.2500  -5.0000 Du        
   7280 ****        20.0000  -9.2500  -4.7500 Du        
   7281 ****        20.0000  -9.2500  -4.5000 Du        
   7282 ****        20.0000  -9.2500  -4.2500 Du        
   7283 ****        20.0000  -9.2500  -4.0000 Du        
   7284 ****        20.0000  -9.2500  -3.7500 Du        
   7285 ****        20.0000  -9.2500  -3.5000 Du        
   7286 ****        20.0000  -9.2500  -3.2500 Du        
   7287 ****        20.0000  -9.2500  -3.0000 Du        
   7288 ****        20.0000  -9.0000  -5.5000 Du        
   7289 ****        20.0000  -9.0000  -5.2500 Du        
   7290 ****        20.0000  -9.0000  -5.0000 Du        
   7291 ****        20.0000  -9.0000  -4.7500 Du        
   7292 ****        20.0000  -9.0000  -4.5000 Du        
   7293 ****        20.0000  -9.0000  -4.2500 Du        
   7294 ****        20.0000  -9.0000  -4.0000 Du        
   7295 ****        20.0000  -9.0000  -3.7500 Du        
   7296 ****        20.0000  -9.0000  -3.5000 Du        
   7297 ****        20.0000  -9.0000  -3.2500 Du        
   7298 ****        20.0000  -9.0000  -3.0000 Du        
   7299 ****        20.0000  -9.0000  -2.7500 Du        
   7300 ****        20.0000  -8.7500  -5.0000 Du        
   7301 ****        20.0000  -8.7500  -4.7500 Du        
   7302 ****        20.0000  -8.7500  -4.5000 Du        
   7303 ****        20.0000  -8.7500  -4.2500 Du        
   7304 ****        20.0000  -8.7500  -4.0000 Du        
   7305 ****        20.0000  -8.7500  -3.7500 Du        
   7306 ****        20.0000  -8.7500  -3.5000 Du        
   7307 ****        20.0000  -8.7500  -3.2500 Du        
   7308 ****        20.0000  -8.7500  -3.0000 Du        
   7309 ****        20.0000  -8.7500  -2.7500 Du        
   7310 ****        20.0000  -8.5000  -4.5000 Du        
   7311 ****        20.0000  -8.5000  -4.2500 Du        
   7312 ****        20.0000  -8.5000  -4.0000 Du        
   7313 ****        20.0000  -8.5000  -3.7500 Du        
   7314 ****        20.0000  -8.5000  -3.5000 Du        
   7315 ****        20.0000  -8.5000  -3.2500 Du        
   7316 ****        20.0000  -8.2500  -4.0000 Du        
   7317 ****        20.0000  -8.2500  -3.7500 Du        
   7318 ****        20.0000  -8.2500  -3.5000 Du        
   7319 ****        20.0000  -8.2500  -3.2500 Du        
   7320 ****        20.0000  -8.2500  -3.0000 Du        
   7321 ****        20.0000  -8.2500  -2.7500 Du        
   7322 ****        20.0000  -8.0000  -3.7500 Du        
   7323 ****        20.0000  -8.0000  -3.5000 Du        
   7324 ****        20.0000  -8.0000  -3.2500 Du        
   7325 ****        20.0000  -8.0000  -3.0000 Du        
   7326 ****        20.0000  -8.0000  -2.7500 Du        
   7327 ****        20.0000  -7.7500  -3.5000 Du        
   7328 ****        20.0000  -7.7500  -3.2500 Du        
   7329 ****        20.0000  -7.7500  -3.0000 Du        
   7330 ****        20.0000  -7.7500  -2.7500 Du        
   7331 ****        20.0000  -7.7500  -2.2500 Du        
   7332 ****        20.0000  -7.5000  -3.0000 Du        
   7333 ****        20.0000  -7.5000  -2.7500 Du        
   7334 ****        20.0000  -7.5000  -2.5000 Du        
   7335 ****        20.0000  -7.5000  -2.2500 Du        
   7336 ****        20.0000  -7.2500  -3.0000 Du        
   7337 ****        20.0000  -7.2500  -2.7500 Du        
   7338 ****        20.0000   4.2500  15.0000 Du        
   7339 ****        20.0000   4.2500  15.2500 Du        
   7340 ****        20.0000   4.2500  15.5000 Du        
   7341 ****        20.0000   4.5000  14.7500 Du        
   7342 ****        20.0000   4.5000  15.0000 Du        
   7343 ****        20.0000   4.5000  15.2500 Du        
   7344 ****        20.0000   4.7500  14.5000 Du        
   7345 ****        20.0000   4.7500  14.7500 Du        
   7346 ****        20.0000   4.7500  15.0000 Du        
   7347 ****        20.0000   4.7500  15.2500 Du        
   7348 ****        20.0000   5.0000  14.7500 Du        
   7349 ****        20.0000   5.0000  15.0000 Du        
   7350 ****        20.0000   5.0000  15.2500 Du        
   7351 ****        20.0000   5.2500  15.0000 Du        
   7352 ****        20.0000   8.0000  16.2500 Du        
   7353 ****        20.0000   8.2500  16.0000 Du        
   7354 ****        20.0000   8.2500  16.2500 Du        
   7355 ****        20.0000   8.5000  16.0000 Du        
   7356 ****        20.0000   8.5000  16.2500 Du        
   7357 ****        20.0000   8.7500  16.0000 Du        
   7358 ****        20.0000   8.7500  16.2500 Du        
   7359 ****        20.0000   8.7500  16.5000 Du        
   7360 ****        20.0000   9.0000  16.0000 Du        
   7361 ****        20.0000   9.0000  16.2500 Du        
   7362 ****        20.0000   9.0000  16.5000 Du        
   7363 ****        20.0000   9.2500  16.0000 Du        
   7364 ****        20.0000   9.2500  16.2500 Du        
   7365 ****        20.0000   9.2500  16.5000 Du        
   7366 ****        20.0000   9.5000  16.0000 Du        
   7367 ****        20.0000   9.5000  16.2500 Du        
   7368 ****        20.0000   9.5000  16.5000 Du        
   7369 ****        20.0000   9.5000  16.7500 Du        
   7370 ****        20.0000   9.7500  16.0000 Du        
   7371 ****        20.0000   9.7500  16.2500 Du        
   7372 ****        20.0000   9.7500  16.5000 Du        
   7373 ****        20.0000   9.7500  16.7500 Du        
   7374 ****        20.0000  10.0000  16.0000 Du        
   7375 ****        20.0000  10.0000  16.2500 Du        
   7376 ****        20.0000  10.0000  16.5000 Du        
   7377 ****        20.0000  10.0000  16.7500 Du        
   7378 ****        20.0000  10.2500  16.0000 Du        
   7379 ****        20.0000  10.2500  16.2500 Du        
   7380 ****        20.0000  10.2500  16.5000 Du        
   7381 ****        20.0000  10.2500  16.7500 Du        
   7382 ****        20.0000  10.5000  16.0000 Du        
   7383 ****        20.0000  10.5000  16.2500 Du        
   7384 ****        20.0000  10.5000  16.5000 Du        
   7385 ****        20.0000  10.7500  16.0000 Du        
   7386 ****        20.0000  10.7500  16.2500 Du        
   7387 ****        20.0000  10.7500  16.5000 Du        
   7388 ****        20.0000  11.0000  16.2500 Du        
   7389 ****        20.2500 -12.2500  12.7500 Du        
   7390 ****        20.2500 -12.2500  13.0000 Du        
   7391 ****        20.2500 -12.2500  13.2500 Du        
   7392 ****        20.2500 -12.0000  -2.2500 Du        
   7393 ****        20.2500 -12.0000  -2.0000 Du        
   7394 ****        20.2500 -12.0000  12.7500 Du        
   7395 ****        20.2500 -12.0000  13.0000 Du        
   7396 ****        20.2500 -12.0000  13.2500 Du        
   7397 ****        20.2500 -11.7500  -2.2500 Du        
   7398 ****        20.2500 -11.7500  -2.0000 Du        
   7399 ****        20.2500 -11.7500  12.7500 Du        
   7400 ****        20.2500 -11.7500  13.0000 Du        
   7401 ****        20.2500 -11.7500  13.2500 Du        
   7402 ****        20.2500 -11.5000  -2.5000 Du        
   7403 ****        20.2500 -11.5000  -2.2500 Du        
   7404 ****        20.2500 -11.5000  -2.0000 Du        
   7405 ****        20.2500 -11.5000  -1.7500 Du        
   7406 ****        20.2500 -11.5000  12.7500 Du        
   7407 ****        20.2500 -11.5000  13.0000 Du        
   7408 ****        20.2500 -11.2500  -2.5000 Du        
   7409 ****        20.2500 -11.2500  -2.2500 Du        
   7410 ****        20.2500 -11.2500  -2.0000 Du        
   7411 ****        20.2500 -11.2500  -1.7500 Du        
   7412 ****        20.2500 -11.0000  -2.7500 Du        
   7413 ****        20.2500 -11.0000  -2.5000 Du        
   7414 ****        20.2500 -11.0000  -2.2500 Du        
   7415 ****        20.2500 -11.0000  -2.0000 Du        
   7416 ****        20.2500 -11.0000  -1.7500 Du        
   7417 ****        20.2500 -10.7500  -8.0000 Du        
   7418 ****        20.2500 -10.7500  -2.7500 Du        
   7419 ****        20.2500 -10.7500  -2.5000 Du        
   7420 ****        20.2500 -10.7500  -2.2500 Du        
   7421 ****        20.2500 -10.7500  -2.0000 Du        
   7422 ****        20.2500 -10.7500  -1.7500 Du        
   7423 ****        20.2500 -10.5000  -8.0000 Du        
   7424 ****        20.2500 -10.5000  -7.7500 Du        
   7425 ****        20.2500 -10.5000  -2.7500 Du        
   7426 ****        20.2500 -10.5000  -2.5000 Du        
   7427 ****        20.2500 -10.5000  -2.2500 Du        
   7428 ****        20.2500 -10.5000  -2.0000 Du        
   7429 ****        20.2500 -10.5000  -1.7500 Du        
   7430 ****        20.2500 -10.2500  -8.0000 Du        
   7431 ****        20.2500 -10.2500  -7.7500 Du        
   7432 ****        20.2500 -10.2500  -7.5000 Du        
   7433 ****        20.2500 -10.2500  -3.0000 Du        
   7434 ****        20.2500 -10.2500  -2.7500 Du        
   7435 ****        20.2500 -10.2500  -2.5000 Du        
   7436 ****        20.2500 -10.2500  -2.2500 Du        
   7437 ****        20.2500 -10.2500  -2.0000 Du        
   7438 ****        20.2500 -10.2500  -1.7500 Du        
   7439 ****        20.2500 -10.0000  -7.7500 Du        
   7440 ****        20.2500 -10.0000  -7.5000 Du        
   7441 ****        20.2500 -10.0000  -7.2500 Du        
   7442 ****        20.2500 -10.0000  -3.2500 Du        
   7443 ****        20.2500 -10.0000  -3.0000 Du        
   7444 ****        20.2500 -10.0000  -2.7500 Du        
   7445 ****        20.2500 -10.0000  -2.5000 Du        
   7446 ****        20.2500 -10.0000  -2.2500 Du        
   7447 ****        20.2500 -10.0000  -2.0000 Du        
   7448 ****        20.2500  -9.7500  -7.5000 Du        
   7449 ****        20.2500  -9.7500  -7.2500 Du        
   7450 ****        20.2500  -9.7500  -7.0000 Du        
   7451 ****        20.2500  -9.7500  -4.0000 Du        
   7452 ****        20.2500  -9.7500  -3.7500 Du        
   7453 ****        20.2500  -9.7500  -3.5000 Du        
   7454 ****        20.2500  -9.7500  -3.2500 Du        
   7455 ****        20.2500  -9.7500  -3.0000 Du        
   7456 ****        20.2500  -9.7500  -2.7500 Du        
   7457 ****        20.2500  -9.5000  -7.0000 Du        
   7458 ****        20.2500  -9.5000  -6.7500 Du        
   7459 ****        20.2500  -9.5000  -4.7500 Du        
   7460 ****        20.2500  -9.5000  -4.5000 Du        
   7461 ****        20.2500  -9.5000  -4.2500 Du        
   7462 ****        20.2500  -9.5000  -4.0000 Du        
   7463 ****        20.2500  -9.5000  -3.7500 Du        
   7464 ****        20.2500  -9.5000  -3.5000 Du        
   7465 ****        20.2500  -9.5000  -3.2500 Du        
   7466 ****        20.2500  -9.5000  -3.0000 Du        
   7467 ****        20.2500  -9.2500  -6.0000 Du        
   7468 ****        20.2500  -9.2500  -5.7500 Du        
   7469 ****        20.2500  -9.2500  -5.5000 Du        
   7470 ****        20.2500  -9.2500  -5.2500 Du        
   7471 ****        20.2500  -9.2500  -5.0000 Du        
   7472 ****        20.2500  -9.2500  -4.7500 Du        
   7473 ****        20.2500  -9.2500  -4.5000 Du        
   7474 ****        20.2500  -9.2500  -4.2500 Du        
   7475 ****        20.2500  -9.2500  -4.0000 Du        
   7476 ****        20.2500  -9.2500  -3.7500 Du        
   7477 ****        20.2500  -9.2500  -3.5000 Du        
   7478 ****        20.2500  -9.2500  -3.2500 Du        
   7479 ****        20.2500  -9.2500  -3.0000 Du        
   7480 ****        20.2500  -9.2500  -2.7500 Du        
   7481 ****        20.2500  -9.0000  -5.7500 Du        
   7482 ****        20.2500  -9.0000  -5.5000 Du        
   7483 ****        20.2500  -9.0000  -5.2500 Du        
   7484 ****        20.2500  -9.0000  -5.0000 Du        
   7485 ****        20.2500  -9.0000  -4.7500 Du        
   7486 ****        20.2500  -9.0000  -4.5000 Du        
   7487 ****        20.2500  -9.0000  -4.2500 Du        
   7488 ****        20.2500  -9.0000  -4.0000 Du        
   7489 ****        20.2500  -9.0000  -3.7500 Du        
   7490 ****        20.2500  -9.0000  -3.5000 Du        
   7491 ****        20.2500  -9.0000  -3.2500 Du        
   7492 ****        20.2500  -9.0000  -3.0000 Du        
   7493 ****        20.2500  -9.0000  -2.7500 Du        
   7494 ****        20.2500  -8.7500  -5.2500 Du        
   7495 ****        20.2500  -8.7500  -5.0000 Du        
   7496 ****        20.2500  -8.7500  -4.7500 Du        
   7497 ****        20.2500  -8.7500  -4.5000 Du        
   7498 ****        20.2500  -8.7500  -4.2500 Du        
   7499 ****        20.2500  -8.7500  -4.0000 Du        
   7500 ****        20.2500  -8.7500  -3.7500 Du        
   7501 ****        20.2500  -8.7500  -3.5000 Du        
   7502 ****        20.2500  -8.7500  -3.2500 Du        
   7503 ****        20.2500  -8.7500  -3.0000 Du        
   7504 ****        20.2500  -8.5000  -5.0000 Du        
   7505 ****        20.2500  -8.5000  -4.7500 Du        
   7506 ****        20.2500  -8.5000  -4.5000 Du        
   7507 ****        20.2500  -8.5000  -4.2500 Du        
   7508 ****        20.2500  -8.5000  -4.0000 Du        
   7509 ****        20.2500  -8.5000  -3.7500 Du        
   7510 ****        20.2500  -8.5000  -3.5000 Du        
   7511 ****        20.2500  -8.5000  -3.2500 Du        
   7512 ****        20.2500  -8.5000  -3.0000 Du        
   7513 ****        20.2500  -8.2500  -4.5000 Du        
   7514 ****        20.2500  -8.2500  -4.2500 Du        
   7515 ****        20.2500  -8.2500  -4.0000 Du        
   7516 ****        20.2500  -8.2500  -3.7500 Du        
   7517 ****        20.2500  -8.2500  -3.5000 Du        
   7518 ****        20.2500  -8.2500  -3.2500 Du        
   7519 ****        20.2500  -8.2500  -3.0000 Du        
   7520 ****        20.2500  -8.2500  -2.7500 Du        
   7521 ****        20.2500  -8.0000  -4.2500 Du        
   7522 ****        20.2500  -8.0000  -4.0000 Du        
   7523 ****        20.2500  -8.0000  -3.7500 Du        
   7524 ****        20.2500  -8.0000  -3.5000 Du        
   7525 ****        20.2500  -8.0000  -3.2500 Du        
   7526 ****        20.2500  -8.0000  -3.0000 Du        
   7527 ****        20.2500  -8.0000  -2.7500 Du        
   7528 ****        20.2500  -7.7500  -3.7500 Du        
   7529 ****        20.2500  -7.7500  -3.5000 Du        
   7530 ****        20.2500  -7.7500  -3.2500 Du        
   7531 ****        20.2500  -7.7500  -3.0000 Du        
   7532 ****        20.2500  -7.7500  -2.7500 Du        
   7533 ****        20.2500  -7.5000  -3.2500 Du        
   7534 ****        20.2500  -7.5000  -3.0000 Du        
   7535 ****        20.2500  -7.5000  -2.7500 Du        
   7536 ****        20.2500  -7.2500  -3.0000 Du        
   7537 ****        20.2500  -7.2500  -2.7500 Du        
   7538 ****        20.2500   4.5000  14.7500 Du        
   7539 ****        20.2500   4.5000  15.0000 Du        
   7540 ****        20.2500   4.7500  14.7500 Du        
   7541 ****        20.2500   4.7500  15.0000 Du        
   7542 ****        20.2500   8.5000  16.2500 Du        
   7543 ****        20.2500   8.7500  16.0000 Du        
   7544 ****        20.2500   8.7500  16.2500 Du        
   7545 ****        20.2500   8.7500  16.5000 Du        
   7546 ****        20.2500   8.7500  16.7500 Du        
   7547 ****        20.2500   9.0000  16.0000 Du        
   7548 ****        20.2500   9.0000  16.2500 Du        
   7549 ****        20.2500   9.0000  16.5000 Du        
   7550 ****        20.2500   9.0000  16.7500 Du        
   7551 ****        20.2500   9.2500  16.0000 Du        
   7552 ****        20.2500   9.2500  16.2500 Du        
   7553 ****        20.2500   9.2500  16.5000 Du        
   7554 ****        20.2500   9.2500  16.7500 Du        
   7555 ****        20.2500   9.5000  16.0000 Du        
   7556 ****        20.2500   9.5000  16.2500 Du        
   7557 ****        20.2500   9.5000  16.5000 Du        
   7558 ****        20.2500   9.5000  16.7500 Du        
   7559 ****        20.2500   9.5000  17.0000 Du        
   7560 ****        20.2500   9.7500  16.0000 Du        
   7561 ****        20.2500   9.7500  16.2500 Du        
   7562 ****        20.2500   9.7500  16.5000 Du        
   7563 ****        20.2500   9.7500  16.7500 Du        
   7564 ****        20.2500  10.0000  16.0000 Du        
   7565 ****        20.2500  10.0000  16.2500 Du        
   7566 ****        20.2500  10.0000  16.5000 Du        
   7567 ****        20.2500  10.0000  16.7500 Du        
   7568 ****        20.2500  10.2500  16.2500 Du        
   7569 ****        20.2500  10.2500  16.5000 Du        
   7570 ****        20.2500  10.2500  16.7500 Du        
   7571 ****        20.2500  10.5000  16.2500 Du        
   7572 ****        20.5000 -12.7500  -2.0000 Du        
   7573 ****        20.5000 -12.5000  -2.2500 Du        
   7574 ****        20.5000 -12.5000  -2.0000 Du        
   7575 ****        20.5000 -12.2500  -2.2500 Du        
   7576 ****        20.5000 -12.2500  -2.0000 Du        
   7577 ****        20.5000 -12.2500  -1.7500 Du        
   7578 ****        20.5000 -12.2500  12.7500 Du        
   7579 ****        20.5000 -12.2500  13.0000 Du        
   7580 ****        20.5000 -12.2500  13.2500 Du        
   7581 ****        20.5000 -12.0000  -2.5000 Du        
   7582 ****        20.5000 -12.0000  -2.2500 Du        
   7583 ****        20.5000 -12.0000  -2.0000 Du        
   7584 ****        20.5000 -12.0000  -1.7500 Du        
   7585 ****        20.5000 -12.0000  12.7500 Du        
   7586 ****        20.5000 -12.0000  13.0000 Du        
   7587 ****        20.5000 -12.0000  13.2500 Du        
   7588 ****        20.5000 -12.0000  13.5000 Du        
   7589 ****        20.5000 -11.7500  -2.5000 Du        
   7590 ****        20.5000 -11.7500  -2.2500 Du        
   7591 ****        20.5000 -11.7500  -2.0000 Du        
   7592 ****        20.5000 -11.7500  -1.7500 Du        
   7593 ****        20.5000 -11.7500  12.7500 Du        
   7594 ****        20.5000 -11.7500  13.0000 Du        
   7595 ****        20.5000 -11.7500  13.2500 Du        
   7596 ****        20.5000 -11.7500  13.5000 Du        
   7597 ****        20.5000 -11.5000  -2.5000 Du        
   7598 ****        20.5000 -11.5000  -2.2500 Du        
   7599 ****        20.5000 -11.5000  -2.0000 Du        
   7600 ****        20.5000 -11.5000  -1.7500 Du        
   7601 ****        20.5000 -11.5000  12.7500 Du        
   7602 ****        20.5000 -11.5000  13.0000 Du        
   7603 ****        20.5000 -11.5000  13.2500 Du        
   7604 ****        20.5000 -11.5000  13.5000 Du        
   7605 ****        20.5000 -11.2500  -2.5000 Du        
   7606 ****        20.5000 -11.2500  -2.2500 Du        
   7607 ****        20.5000 -11.2500  -2.0000 Du        
   7608 ****        20.5000 -11.2500  -1.7500 Du        
   7609 ****        20.5000 -11.2500  12.7500 Du        
   7610 ****        20.5000 -11.2500  13.0000 Du        
   7611 ****        20.5000 -11.2500  13.2500 Du        
   7612 ****        20.5000 -11.0000  -2.7500 Du        
   7613 ****        20.5000 -11.0000  -2.5000 Du        
   7614 ****        20.5000 -11.0000  -2.2500 Du        
   7615 ****        20.5000 -11.0000  -2.0000 Du        
   7616 ****        20.5000 -11.0000  -1.7500 Du        
   7617 ****        20.5000 -11.0000  12.7500 Du        
   7618 ****        20.5000 -10.7500  -8.2500 Du        
   7619 ****        20.5000 -10.7500  -8.0000 Du        
   7620 ****        20.5000 -10.7500  -2.7500 Du        
   7621 ****        20.5000 -10.7500  -2.5000 Du        
   7622 ****        20.5000 -10.7500  -2.2500 Du        
   7623 ****        20.5000 -10.7500  -2.0000 Du        
   7624 ****        20.5000 -10.7500  -1.7500 Du        
   7625 ****        20.5000 -10.7500  -1.5000 Du        
   7626 ****        20.5000 -10.5000  -8.0000 Du        
   7627 ****        20.5000 -10.5000  -7.7500 Du        
   7628 ****        20.5000 -10.5000  -3.0000 Du        
   7629 ****        20.5000 -10.5000  -2.7500 Du        
   7630 ****        20.5000 -10.5000  -2.5000 Du        
   7631 ****        20.5000 -10.5000  -2.2500 Du        
   7632 ****        20.5000 -10.5000  -2.0000 Du        
   7633 ****        20.5000 -10.2500  -8.0000 Du        
   7634 ****        20.5000 -10.2500  -7.7500 Du        
   7635 ****        20.5000 -10.2500  -7.5000 Du        
   7636 ****        20.5000 -10.2500  -3.0000 Du        
   7637 ****        20.5000 -10.2500  -2.7500 Du        
   7638 ****        20.5000 -10.2500  -2.5000 Du        
   7639 ****        20.5000 -10.2500  -2.2500 Du        
   7640 ****        20.5000 -10.2500  -2.0000 Du        
   7641 ****        20.5000 -10.0000  -7.7500 Du        
   7642 ****        20.5000 -10.0000  -7.5000 Du        
   7643 ****        20.5000 -10.0000  -7.2500 Du        
   7644 ****        20.5000 -10.0000  -3.5000 Du        
   7645 ****        20.5000 -10.0000  -3.2500 Du        
   7646 ****        20.5000 -10.0000  -3.0000 Du        
   7647 ****        20.5000 -10.0000  -2.7500 Du        
   7648 ****        20.5000 -10.0000  -2.5000 Du        
   7649 ****        20.5000 -10.0000  -2.2500 Du        
   7650 ****        20.5000  -9.7500  -7.2500 Du        
   7651 ****        20.5000  -9.7500  -7.0000 Du        
   7652 ****        20.5000  -9.7500  -4.0000 Du        
   7653 ****        20.5000  -9.7500  -3.7500 Du        
   7654 ****        20.5000  -9.7500  -3.5000 Du        
   7655 ****        20.5000  -9.7500  -3.2500 Du        
   7656 ****        20.5000  -9.7500  -3.0000 Du        
   7657 ****        20.5000  -9.7500  -2.7500 Du        
   7658 ****        20.5000  -9.7500  -2.5000 Du        
   7659 ****        20.5000  -9.5000  -4.7500 Du        
   7660 ****        20.5000  -9.5000  -4.5000 Du        
   7661 ****        20.5000  -9.5000  -4.2500 Du        
   7662 ****        20.5000  -9.5000  -4.0000 Du        
   7663 ****        20.5000  -9.5000  -3.7500 Du        
   7664 ****        20.5000  -9.5000  -3.5000 Du        
   7665 ****        20.5000  -9.5000  -3.2500 Du        
   7666 ****        20.5000  -9.5000  -3.0000 Du        
   7667 ****        20.5000  -9.2500  -5.2500 Du        
   7668 ****        20.5000  -9.2500  -5.0000 Du        
   7669 ****        20.5000  -9.2500  -4.7500 Du        
   7670 ****        20.5000  -9.2500  -4.5000 Du        
   7671 ****        20.5000  -9.2500  -4.2500 Du        
   7672 ****        20.5000  -9.2500  -4.0000 Du        
   7673 ****        20.5000  -9.2500  -3.7500 Du        
   7674 ****        20.5000  -9.2500  -3.5000 Du        
   7675 ****        20.5000  -9.2500  -3.2500 Du        
   7676 ****        20.5000  -9.2500  -3.0000 Du        
   7677 ****        20.5000  -9.0000  -5.2500 Du        
   7678 ****        20.5000  -9.0000  -5.0000 Du        
   7679 ****        20.5000  -9.0000  -4.7500 Du        
   7680 ****        20.5000  -9.0000  -4.5000 Du        
   7681 ****        20.5000  -9.0000  -4.2500 Du        
   7682 ****        20.5000  -9.0000  -4.0000 Du        
   7683 ****        20.5000  -9.0000  -3.7500 Du        
   7684 ****        20.5000  -9.0000  -3.5000 Du        
   7685 ****        20.5000  -9.0000  -3.2500 Du        
   7686 ****        20.5000  -9.0000  -3.0000 Du        
   7687 ****        20.5000  -9.0000  -2.7500 Du        
   7688 ****        20.5000  -8.7500  -5.2500 Du        
   7689 ****        20.5000  -8.7500  -5.0000 Du        
   7690 ****        20.5000  -8.7500  -4.7500 Du        
   7691 ****        20.5000  -8.7500  -4.5000 Du        
   7692 ****        20.5000  -8.7500  -4.2500 Du        
   7693 ****        20.5000  -8.7500  -4.0000 Du        
   7694 ****        20.5000  -8.7500  -3.7500 Du        
   7695 ****        20.5000  -8.7500  -3.5000 Du        
   7696 ****        20.5000  -8.7500  -3.2500 Du        
   7697 ****        20.5000  -8.7500  -3.0000 Du        
   7698 ****        20.5000  -8.5000  -5.0000 Du        
   7699 ****        20.5000  -8.5000  -4.7500 Du        
   7700 ****        20.5000  -8.5000  -4.5000 Du        
   7701 ****        20.5000  -8.5000  -4.2500 Du        
   7702 ****        20.5000  -8.5000  -4.0000 Du        
   7703 ****        20.5000  -8.5000  -3.7500 Du        
   7704 ****        20.5000  -8.5000  -3.5000 Du        
   7705 ****        20.5000  -8.5000  -3.2500 Du        
   7706 ****        20.5000  -8.5000  -3.0000 Du        
   7707 ****        20.5000  -8.2500  -4.7500 Du        
   7708 ****        20.5000  -8.2500  -4.5000 Du        
   7709 ****        20.5000  -8.2500  -4.2500 Du        
   7710 ****        20.5000  -8.2500  -4.0000 Du        
   7711 ****        20.5000  -8.2500  -3.7500 Du        
   7712 ****        20.5000  -8.2500  -3.5000 Du        
   7713 ****        20.5000  -8.2500  -3.2500 Du        
   7714 ****        20.5000  -8.2500  -3.0000 Du        
   7715 ****        20.5000  -8.2500  -2.7500 Du        
   7716 ****        20.5000  -8.0000  -4.5000 Du        
   7717 ****        20.5000  -8.0000  -4.2500 Du        
   7718 ****        20.5000  -8.0000  -4.0000 Du        
   7719 ****        20.5000  -8.0000  -3.7500 Du        
   7720 ****        20.5000  -8.0000  -3.5000 Du        
   7721 ****        20.5000  -8.0000  -3.2500 Du        
   7722 ****        20.5000  -8.0000  -3.0000 Du        
   7723 ****        20.5000  -8.0000  -2.7500 Du        
   7724 ****        20.5000  -7.7500  -4.2500 Du        
   7725 ****        20.5000  -7.7500  -4.0000 Du        
   7726 ****        20.5000  -7.7500  -3.7500 Du        
   7727 ****        20.5000  -7.7500  -3.5000 Du        
   7728 ****        20.5000  -7.7500  -3.2500 Du        
   7729 ****        20.5000  -7.7500  -3.0000 Du        
   7730 ****        20.5000  -7.7500  -2.7500 Du        
   7731 ****        20.5000  -7.5000  -3.7500 Du        
   7732 ****        20.5000  -7.5000  -3.5000 Du        
   7733 ****        20.5000  -7.5000  -3.2500 Du        
   7734 ****        20.5000  -7.5000  -3.0000 Du        
   7735 ****        20.5000  -7.5000  -2.7500 Du        
   7736 ****        20.5000  -7.2500  -3.5000 Du        
   7737 ****        20.5000  -7.2500  -3.2500 Du        
   7738 ****        20.5000  -7.2500  -3.0000 Du        
   7739 ****        20.5000   8.5000  16.2500 Du        
   7740 ****        20.5000   8.7500  16.2500 Du        
   7741 ****        20.5000   8.7500  16.5000 Du        
   7742 ****        20.5000   8.7500  16.7500 Du        
   7743 ****        20.5000   8.7500  17.0000 Du        
   7744 ****        20.5000   9.0000  16.0000 Du        
   7745 ****        20.5000   9.0000  16.2500 Du        
   7746 ****        20.5000   9.0000  16.5000 Du        
   7747 ****        20.5000   9.0000  16.7500 Du        
   7748 ****        20.5000   9.0000  17.0000 Du        
   7749 ****        20.5000   9.0000  17.2500 Du        
   7750 ****        20.5000   9.2500  16.0000 Du        
   7751 ****        20.5000   9.2500  16.2500 Du        
   7752 ****        20.5000   9.2500  16.5000 Du        
   7753 ****        20.5000   9.2500  16.7500 Du        
   7754 ****        20.5000   9.2500  17.0000 Du        
   7755 ****        20.5000   9.2500  17.2500 Du        
   7756 ****        20.5000   9.5000  16.0000 Du        
   7757 ****        20.5000   9.5000  16.2500 Du        
   7758 ****        20.5000   9.5000  16.5000 Du        
   7759 ****        20.5000   9.5000  16.7500 Du        
   7760 ****        20.5000   9.5000  17.0000 Du        
   7761 ****        20.5000   9.5000  17.2500 Du        
   7762 ****        20.5000   9.7500  16.0000 Du        
   7763 ****        20.5000   9.7500  16.2500 Du        
   7764 ****        20.5000   9.7500  16.5000 Du        
   7765 ****        20.5000   9.7500  16.7500 Du        
   7766 ****        20.5000   9.7500  17.0000 Du        
   7767 ****        20.5000  10.0000  16.2500 Du        
   7768 ****        20.5000  10.0000  16.5000 Du        
   7769 ****        20.5000  10.0000  16.7500 Du        
   7770 ****        20.5000  10.0000  17.0000 Du        
   7771 ****        20.5000  10.2500  16.5000 Du        
   7772 ****        20.5000  10.2500  16.7500 Du        
   7773 ****        20.5000  10.2500  17.0000 Du        
   7774 ****        20.7500 -13.0000  -2.0000 Du        
   7775 ****        20.7500 -13.0000  -1.7500 Du        
   7776 ****        20.7500 -12.7500  -2.2500 Du        
   7777 ****        20.7500 -12.7500  -2.0000 Du        
   7778 ****        20.7500 -12.7500  -1.7500 Du        
   7779 ****        20.7500 -12.5000  -2.2500 Du        
   7780 ****        20.7500 -12.5000  -2.0000 Du        
   7781 ****        20.7500 -12.5000  -1.7500 Du        
   7782 ****        20.7500 -12.2500  -2.5000 Du        
   7783 ****        20.7500 -12.2500  -2.2500 Du        
   7784 ****        20.7500 -12.2500  -2.0000 Du        
   7785 ****        20.7500 -12.2500  -1.7500 Du        
   7786 ****        20.7500 -12.0000  -2.5000 Du        
   7787 ****        20.7500 -12.0000  -2.2500 Du        
   7788 ****        20.7500 -12.0000  -2.0000 Du        
   7789 ****        20.7500 -12.0000  -1.7500 Du        
   7790 ****        20.7500 -12.0000  12.7500 Du        
   7791 ****        20.7500 -12.0000  13.0000 Du        
   7792 ****        20.7500 -12.0000  13.2500 Du        
   7793 ****        20.7500 -11.7500  -2.5000 Du        
   7794 ****        20.7500 -11.7500  -2.2500 Du        
   7795 ****        20.7500 -11.7500  -2.0000 Du        
   7796 ****        20.7500 -11.7500  -1.7500 Du        
   7797 ****        20.7500 -11.7500  12.7500 Du        
   7798 ****        20.7500 -11.7500  13.0000 Du        
   7799 ****        20.7500 -11.7500  13.2500 Du        
   7800 ****        20.7500 -11.5000  -2.5000 Du        
   7801 ****        20.7500 -11.5000  -2.2500 Du        
   7802 ****        20.7500 -11.5000  -2.0000 Du        
   7803 ****        20.7500 -11.5000  -1.7500 Du        
   7804 ****        20.7500 -11.5000  12.7500 Du        
   7805 ****        20.7500 -11.5000  13.0000 Du        
   7806 ****        20.7500 -11.2500  -2.7500 Du        
   7807 ****        20.7500 -11.2500  -2.5000 Du        
   7808 ****        20.7500 -11.2500  -2.2500 Du        
   7809 ****        20.7500 -11.2500  -2.0000 Du        
   7810 ****        20.7500 -11.2500  -1.7500 Du        
   7811 ****        20.7500 -11.2500  12.7500 Du        
   7812 ****        20.7500 -11.0000  -8.2500 Du        
   7813 ****        20.7500 -11.0000  -8.0000 Du        
   7814 ****        20.7500 -11.0000  -2.7500 Du        
   7815 ****        20.7500 -11.0000  -2.5000 Du        
   7816 ****        20.7500 -11.0000  -2.2500 Du        
   7817 ****        20.7500 -11.0000  -2.0000 Du        
   7818 ****        20.7500 -11.0000  -1.7500 Du        
   7819 ****        20.7500 -11.0000  -1.5000 Du        
   7820 ****        20.7500 -11.0000  12.7500 Du        
   7821 ****        20.7500 -10.7500  -8.2500 Du        
   7822 ****        20.7500 -10.7500  -8.0000 Du        
   7823 ****        20.7500 -10.7500  -7.7500 Du        
   7824 ****        20.7500 -10.7500  -3.0000 Du        
   7825 ****        20.7500 -10.7500  -2.7500 Du        
   7826 ****        20.7500 -10.7500  -2.5000 Du        
   7827 ****        20.7500 -10.7500  -2.2500 Du        
   7828 ****        20.7500 -10.7500  -2.0000 Du        
   7829 ****        20.7500 -10.7500  -1.7500 Du        
   7830 ****        20.7500 -10.7500  -1.5000 Du        
   7831 ****        20.7500 -10.5000  -8.0000 Du        
   7832 ****        20.7500 -10.5000  -7.7500 Du        
   7833 ****        20.7500 -10.5000  -3.0000 Du        
   7834 ****        20.7500 -10.5000  -2.7500 Du        
   7835 ****        20.7500 -10.5000  -2.5000 Du        
   7836 ****        20.7500 -10.5000  -2.2500 Du        
   7837 ****        20.7500 -10.5000  -2.0000 Du        
   7838 ****        20.7500 -10.5000  -1.7500 Du        
   7839 ****        20.7500 -10.2500  -7.7500 Du        
   7840 ****        20.7500 -10.2500  -7.5000 Du        
   7841 ****        20.7500 -10.2500  -3.5000 Du        
   7842 ****        20.7500 -10.2500  -3.2500 Du        
   7843 ****        20.7500 -10.2500  -3.0000 Du        
   7844 ****        20.7500 -10.2500  -2.7500 Du        
   7845 ****        20.7500 -10.2500  -2.5000 Du        
   7846 ****        20.7500 -10.2500  -2.2500 Du        
   7847 ****        20.7500 -10.2500  -2.0000 Du        
   7848 ****        20.7500 -10.0000  -3.7500 Du        
   7849 ****        20.7500 -10.0000  -3.5000 Du        
   7850 ****        20.7500 -10.0000  -3.2500 Du        
   7851 ****        20.7500 -10.0000  -3.0000 Du        
   7852 ****        20.7500 -10.0000  -2.7500 Du        
   7853 ****        20.7500 -10.0000  -2.5000 Du        
   7854 ****        20.7500 -10.0000  -2.2500 Du        
   7855 ****        20.7500 -10.0000  -2.0000 Du        
   7856 ****        20.7500  -9.7500  -4.2500 Du        
   7857 ****        20.7500  -9.7500  -4.0000 Du        
   7858 ****        20.7500  -9.7500  -3.7500 Du        
   7859 ****        20.7500  -9.7500  -3.5000 Du        
   7860 ****        20.7500  -9.7500  -3.2500 Du        
   7861 ****        20.7500  -9.7500  -3.0000 Du        
   7862 ****        20.7500  -9.7500  -2.7500 Du        
   7863 ****        20.7500  -9.7500  -2.5000 Du        
   7864 ****        20.7500  -9.7500  -2.2500 Du        
   7865 ****        20.7500  -9.5000  -4.7500 Du        
   7866 ****        20.7500  -9.5000  -4.5000 Du        
   7867 ****        20.7500  -9.5000  -4.2500 Du        
   7868 ****        20.7500  -9.5000  -4.0000 Du        
   7869 ****        20.7500  -9.5000  -3.7500 Du        
   7870 ****        20.7500  -9.5000  -3.5000 Du        
   7871 ****        20.7500  -9.5000  -3.2500 Du        
   7872 ****        20.7500  -9.5000  -3.0000 Du        
   7873 ****        20.7500  -9.2500  -5.0000 Du        
   7874 ****        20.7500  -9.2500  -4.7500 Du        
   7875 ****        20.7500  -9.2500  -4.5000 Du        
   7876 ****        20.7500  -9.2500  -4.2500 Du        
   7877 ****        20.7500  -9.2500  -4.0000 Du        
   7878 ****        20.7500  -9.2500  -3.7500 Du        
   7879 ****        20.7500  -9.2500  -3.5000 Du        
   7880 ****        20.7500  -9.2500  -3.2500 Du        
   7881 ****        20.7500  -9.2500  -3.0000 Du        
   7882 ****        20.7500  -9.0000  -5.0000 Du        
   7883 ****        20.7500  -9.0000  -4.7500 Du        
   7884 ****        20.7500  -9.0000  -4.5000 Du        
   7885 ****        20.7500  -9.0000  -4.2500 Du        
   7886 ****        20.7500  -9.0000  -4.0000 Du        
   7887 ****        20.7500  -9.0000  -3.7500 Du        
   7888 ****        20.7500  -9.0000  -3.5000 Du        
   7889 ****        20.7500  -9.0000  -3.2500 Du        
   7890 ****        20.7500  -9.0000  -3.0000 Du        
   7891 ****        20.7500  -8.7500  -5.0000 Du        
   7892 ****        20.7500  -8.7500  -4.7500 Du        
   7893 ****        20.7500  -8.7500  -4.5000 Du        
   7894 ****        20.7500  -8.7500  -4.2500 Du        
   7895 ****        20.7500  -8.7500  -4.0000 Du        
   7896 ****        20.7500  -8.7500  -3.7500 Du        
   7897 ****        20.7500  -8.7500  -3.5000 Du        
   7898 ****        20.7500  -8.7500  -3.2500 Du        
   7899 ****        20.7500  -8.5000  -5.0000 Du        
   7900 ****        20.7500  -8.5000  -4.7500 Du        
   7901 ****        20.7500  -8.5000  -4.5000 Du        
   7902 ****        20.7500  -8.5000  -4.2500 Du        
   7903 ****        20.7500  -8.5000  -4.0000 Du        
   7904 ****        20.7500  -8.5000  -3.7500 Du        
   7905 ****        20.7500  -8.5000  -3.5000 Du        
   7906 ****        20.7500  -8.5000  -3.2500 Du        
   7907 ****        20.7500  -8.2500  -5.0000 Du        
   7908 ****        20.7500  -8.2500  -4.7500 Du        
   7909 ****        20.7500  -8.2500  -4.5000 Du        
   7910 ****        20.7500  -8.2500  -4.2500 Du        
   7911 ****        20.7500  -8.2500  -4.0000 Du        
   7912 ****        20.7500  -8.2500  -3.7500 Du        
   7913 ****        20.7500  -8.2500  -3.5000 Du        
   7914 ****        20.7500  -8.2500  -3.2500 Du        
   7915 ****        20.7500  -8.2500  -3.0000 Du        
   7916 ****        20.7500  -8.0000  -4.7500 Du        
   7917 ****        20.7500  -8.0000  -4.5000 Du        
   7918 ****        20.7500  -8.0000  -4.2500 Du        
   7919 ****        20.7500  -8.0000  -4.0000 Du        
   7920 ****        20.7500  -8.0000  -3.7500 Du        
   7921 ****        20.7500  -8.0000  -3.5000 Du        
   7922 ****        20.7500  -8.0000  -3.2500 Du        
   7923 ****        20.7500  -8.0000  -3.0000 Du        
   7924 ****        20.7500  -7.7500  -4.5000 Du        
   7925 ****        20.7500  -7.7500  -4.2500 Du        
   7926 ****        20.7500  -7.7500  -4.0000 Du        
   7927 ****        20.7500  -7.7500  -3.7500 Du        
   7928 ****        20.7500  -7.7500  -3.5000 Du        
   7929 ****        20.7500  -7.7500  -3.2500 Du        
   7930 ****        20.7500  -7.5000  -4.2500 Du        
   7931 ****        20.7500  -7.5000  -4.0000 Du        
   7932 ****        20.7500  -7.5000  -3.7500 Du        
   7933 ****        20.7500  -7.5000  -3.5000 Du        
   7934 ****        20.7500  -7.5000  -3.2500 Du        
   7935 ****        20.7500  -7.2500  -4.0000 Du        
   7936 ****        20.7500  -7.2500  -3.7500 Du        
   7937 ****        20.7500  -7.2500  -3.5000 Du        
   7938 ****        20.7500  -7.2500  -3.2500 Du        
   7939 ****        20.7500   8.7500  16.2500 Du        
   7940 ****        20.7500   8.7500  16.5000 Du        
   7941 ****        20.7500   8.7500  16.7500 Du        
   7942 ****        20.7500   8.7500  17.0000 Du        
   7943 ****        20.7500   9.0000  16.2500 Du        
   7944 ****        20.7500   9.0000  16.5000 Du        
   7945 ****        20.7500   9.0000  16.7500 Du        
   7946 ****        20.7500   9.0000  17.0000 Du        
   7947 ****        20.7500   9.0000  17.2500 Du        
   7948 ****        20.7500   9.2500  16.0000 Du        
   7949 ****        20.7500   9.2500  16.2500 Du        
   7950 ****        20.7500   9.2500  16.5000 Du        
   7951 ****        20.7500   9.2500  16.7500 Du        
   7952 ****        20.7500   9.2500  17.0000 Du        
   7953 ****        20.7500   9.2500  17.2500 Du        
   7954 ****        20.7500   9.5000  16.2500 Du        
   7955 ****        20.7500   9.5000  16.5000 Du        
   7956 ****        20.7500   9.5000  16.7500 Du        
   7957 ****        20.7500   9.5000  17.0000 Du        
   7958 ****        20.7500   9.5000  17.2500 Du        
   7959 ****        20.7500   9.7500  16.2500 Du        
   7960 ****        20.7500   9.7500  16.5000 Du        
   7961 ****        20.7500   9.7500  16.7500 Du        
   7962 ****        20.7500   9.7500  17.0000 Du        
   7963 ****        20.7500   9.7500  17.2500 Du        
   7964 ****        20.7500  10.0000  16.5000 Du        
   7965 ****        20.7500  10.0000  16.7500 Du        
   7966 ****        20.7500  10.0000  17.0000 Du        
   7967 ****        21.0000 -13.7500  -1.7500 Du        
   7968 ****        21.0000 -13.5000  -2.0000 Du        
   7969 ****        21.0000 -13.5000  -1.7500 Du        
   7970 ****        21.0000 -13.5000  -1.5000 Du        
   7971 ****        21.0000 -13.2500  -2.0000 Du        
   7972 ****        21.0000 -13.2500  -1.7500 Du        
   7973 ****        21.0000 -13.2500  -1.5000 Du        
   7974 ****        21.0000 -13.0000  -2.2500 Du        
   7975 ****        21.0000 -13.0000  -2.0000 Du        
   7976 ****        21.0000 -13.0000  -1.7500 Du        
   7977 ****        21.0000 -13.0000  -1.5000 Du        
   7978 ****        21.0000 -12.7500  -2.2500 Du        
   7979 ****        21.0000 -12.7500  -2.0000 Du        
   7980 ****        21.0000 -12.7500  -1.7500 Du        
   7981 ****        21.0000 -12.7500  -1.5000 Du        
   7982 ****        21.0000 -12.5000  -2.5000 Du        
   7983 ****        21.0000 -12.5000  -2.2500 Du        
   7984 ****        21.0000 -12.5000  -2.0000 Du        
   7985 ****        21.0000 -12.5000  -1.7500 Du        
   7986 ****        21.0000 -12.2500  -2.5000 Du        
   7987 ****        21.0000 -12.2500  -2.2500 Du        
   7988 ****        21.0000 -12.2500  -2.0000 Du        
   7989 ****        21.0000 -12.2500  -1.7500 Du        
   7990 ****        21.0000 -12.0000  -2.5000 Du        
   7991 ****        21.0000 -12.0000  -2.2500 Du        
   7992 ****        21.0000 -12.0000  -2.0000 Du        
   7993 ****        21.0000 -12.0000  -1.7500 Du        
   7994 ****        21.0000 -12.0000  -1.5000 Du        
   7995 ****        21.0000 -11.7500  -2.7500 Du        
   7996 ****        21.0000 -11.7500  -2.5000 Du        
   7997 ****        21.0000 -11.7500  -2.2500 Du        
   7998 ****        21.0000 -11.7500  -2.0000 Du        
   7999 ****        21.0000 -11.7500  -1.7500 Du        
   8000 ****        21.0000 -11.7500  -1.5000 Du        
   8001 ****        21.0000 -11.5000  -2.7500 Du        
   8002 ****        21.0000 -11.5000  -2.5000 Du        
   8003 ****        21.0000 -11.5000  -2.2500 Du        
   8004 ****        21.0000 -11.5000  -2.0000 Du        
   8005 ****        21.0000 -11.5000  -1.7500 Du        
   8006 ****        21.0000 -11.5000  -1.5000 Du        
   8007 ****        21.0000 -11.2500  -2.7500 Du        
   8008 ****        21.0000 -11.2500  -2.5000 Du        
   8009 ****        21.0000 -11.2500  -2.2500 Du        
   8010 ****        21.0000 -11.2500  -2.0000 Du        
   8011 ****        21.0000 -11.2500  -1.7500 Du        
   8012 ****        21.0000 -11.2500  -1.5000 Du        
   8013 ****        21.0000 -11.0000  -8.2500 Du        
   8014 ****        21.0000 -11.0000  -8.0000 Du        
   8015 ****        21.0000 -11.0000  -3.0000 Du        
   8016 ****        21.0000 -11.0000  -2.7500 Du        
   8017 ****        21.0000 -11.0000  -2.5000 Du        
   8018 ****        21.0000 -11.0000  -2.2500 Du        
   8019 ****        21.0000 -11.0000  -2.0000 Du        
   8020 ****        21.0000 -11.0000  -1.7500 Du        
   8021 ****        21.0000 -11.0000  -1.5000 Du        
   8022 ****        21.0000 -10.7500  -8.2500 Du        
   8023 ****        21.0000 -10.7500  -8.0000 Du        
   8024 ****        21.0000 -10.7500  -7.7500 Du        
   8025 ****        21.0000 -10.7500  -3.0000 Du        
   8026 ****        21.0000 -10.7500  -2.7500 Du        
   8027 ****        21.0000 -10.7500  -2.5000 Du        
   8028 ****        21.0000 -10.7500  -2.2500 Du        
   8029 ****        21.0000 -10.7500  -2.0000 Du        
   8030 ****        21.0000 -10.7500  -1.7500 Du        
   8031 ****        21.0000 -10.7500  -1.5000 Du        
   8032 ****        21.0000 -10.5000  -8.0000 Du        
   8033 ****        21.0000 -10.5000  -7.7500 Du        
   8034 ****        21.0000 -10.5000  -3.2500 Du        
   8035 ****        21.0000 -10.5000  -3.0000 Du        
   8036 ****        21.0000 -10.5000  -2.7500 Du        
   8037 ****        21.0000 -10.5000  -2.5000 Du        
   8038 ****        21.0000 -10.5000  -2.2500 Du        
   8039 ****        21.0000 -10.5000  -2.0000 Du        
   8040 ****        21.0000 -10.5000  -1.7500 Du        
   8041 ****        21.0000 -10.2500  -3.5000 Du        
   8042 ****        21.0000 -10.2500  -3.2500 Du        
   8043 ****        21.0000 -10.2500  -3.0000 Du        
   8044 ****        21.0000 -10.2500  -2.7500 Du        
   8045 ****        21.0000 -10.2500  -2.5000 Du        
   8046 ****        21.0000 -10.2500  -2.2500 Du        
   8047 ****        21.0000 -10.2500  -2.0000 Du        
   8048 ****        21.0000 -10.2500  -1.7500 Du        
   8049 ****        21.0000 -10.0000  -4.0000 Du        
   8050 ****        21.0000 -10.0000  -3.7500 Du        
   8051 ****        21.0000 -10.0000  -3.5000 Du        
   8052 ****        21.0000 -10.0000  -3.2500 Du        
   8053 ****        21.0000 -10.0000  -3.0000 Du        
   8054 ****        21.0000 -10.0000  -2.7500 Du        
   8055 ****        21.0000 -10.0000  -2.5000 Du        
   8056 ****        21.0000 -10.0000  -2.2500 Du        
   8057 ****        21.0000 -10.0000  -2.0000 Du        
   8058 ****        21.0000  -9.7500  -4.2500 Du        
   8059 ****        21.0000  -9.7500  -4.0000 Du        
   8060 ****        21.0000  -9.7500  -3.7500 Du        
   8061 ****        21.0000  -9.7500  -3.5000 Du        
   8062 ****        21.0000  -9.7500  -3.2500 Du        
   8063 ****        21.0000  -9.7500  -3.0000 Du        
   8064 ****        21.0000  -9.7500  -2.7500 Du        
   8065 ****        21.0000  -9.5000  -4.7500 Du        
   8066 ****        21.0000  -9.5000  -4.5000 Du        
   8067 ****        21.0000  -9.5000  -4.2500 Du        
   8068 ****        21.0000  -9.5000  -4.0000 Du        
   8069 ****        21.0000  -9.5000  -3.7500 Du        
   8070 ****        21.0000  -9.5000  -3.5000 Du        
   8071 ****        21.0000  -9.5000  -3.2500 Du        
   8072 ****        21.0000  -9.2500  -4.7500 Du        
   8073 ****        21.0000  -9.2500  -4.5000 Du        
   8074 ****        21.0000  -9.2500  -4.2500 Du        
   8075 ****        21.0000  -9.2500  -4.0000 Du        
   8076 ****        21.0000  -9.2500  -3.7500 Du        
   8077 ****        21.0000  -9.2500  -3.5000 Du        
   8078 ****        21.0000  -9.2500  -3.2500 Du        
   8079 ****        21.0000  -9.0000  -4.7500 Du        
   8080 ****        21.0000  -9.0000  -4.5000 Du        
   8081 ****        21.0000  -9.0000  -4.2500 Du        
   8082 ****        21.0000  -9.0000  -4.0000 Du        
   8083 ****        21.0000  -9.0000  -3.7500 Du        
   8084 ****        21.0000  -9.0000  -3.5000 Du        
   8085 ****        21.0000  -9.0000  -3.2500 Du        
   8086 ****        21.0000  -8.7500  -4.7500 Du        
   8087 ****        21.0000  -8.7500  -4.5000 Du        
   8088 ****        21.0000  -8.7500  -4.2500 Du        
   8089 ****        21.0000  -8.7500  -4.0000 Du        
   8090 ****        21.0000  -8.7500  -3.7500 Du        
   8091 ****        21.0000  -8.7500  -3.5000 Du        
   8092 ****        21.0000  -8.5000  -4.7500 Du        
   8093 ****        21.0000  -8.5000  -4.5000 Du        
   8094 ****        21.0000  -8.5000  -4.2500 Du        
   8095 ****        21.0000  -8.5000  -4.0000 Du        
   8096 ****        21.0000  -8.5000  -3.7500 Du        
   8097 ****        21.0000  -8.5000  -3.5000 Du        
   8098 ****        21.0000  -8.2500  -4.7500 Du        
   8099 ****        21.0000  -8.2500  -4.5000 Du        
   8100 ****        21.0000  -8.2500  -4.2500 Du        
   8101 ****        21.0000  -8.2500  -4.0000 Du        
   8102 ****        21.0000  -8.2500  -3.7500 Du        
   8103 ****        21.0000  -8.2500  -3.5000 Du        
   8104 ****        21.0000  -8.0000  -4.7500 Du        
   8105 ****        21.0000  -8.0000  -4.5000 Du        
   8106 ****        21.0000  -8.0000  -4.2500 Du        
   8107 ****        21.0000  -8.0000  -4.0000 Du        
   8108 ****        21.0000  -8.0000  -3.7500 Du        
   8109 ****        21.0000  -8.0000  -3.5000 Du        
   8110 ****        21.0000  -7.7500  -4.7500 Du        
   8111 ****        21.0000  -7.7500  -4.5000 Du        
   8112 ****        21.0000  -7.7500  -4.2500 Du        
   8113 ****        21.0000  -7.7500  -4.0000 Du        
   8114 ****        21.0000  -7.7500  -3.7500 Du        
   8115 ****        21.0000  -7.7500  -3.5000 Du        
   8116 ****        21.0000  -7.5000  -4.5000 Du        
   8117 ****        21.0000  -7.5000  -4.2500 Du        
   8118 ****        21.0000  -7.5000  -4.0000 Du        
   8119 ****        21.0000  -7.5000  -3.7500 Du        
   8120 ****        21.0000  -7.5000  -3.5000 Du        
   8121 ****        21.0000  -7.2500  -4.5000 Du        
   8122 ****        21.0000  -7.2500  -4.2500 Du        
   8123 ****        21.0000  -7.2500  -4.0000 Du        
   8124 ****        21.0000  -7.2500  -3.7500 Du        
   8125 ****        21.0000  -7.2500  -3.5000 Du        
   8126 ****        21.0000  -7.0000  -4.0000 Du        
   8127 ****        21.0000  -7.0000  -3.7500 Du        
   8128 ****        21.0000   9.0000  16.2500 Du        
   8129 ****        21.0000   9.0000  16.5000 Du        
   8130 ****        21.0000   9.0000  16.7500 Du        
   8131 ****        21.0000   9.0000  17.0000 Du        
   8132 ****        21.0000   9.0000  17.2500 Du        
   8133 ****        21.0000   9.2500  16.2500 Du        
   8134 ****        21.0000   9.2500  16.5000 Du        
   8135 ****        21.0000   9.2500  16.7500 Du        
   8136 ****        21.0000   9.2500  17.0000 Du        
   8137 ****        21.0000   9.2500  17.2500 Du        
   8138 ****        21.0000   9.5000  16.2500 Du        
   8139 ****        21.0000   9.5000  16.5000 Du        
   8140 ****        21.0000   9.5000  16.7500 Du        
   8141 ****        21.0000   9.5000  17.0000 Du        
   8142 ****        21.0000   9.5000  17.2500 Du        
   8143 ****        21.0000   9.7500  16.5000 Du        
   8144 ****        21.0000   9.7500  16.7500 Du        
   8145 ****        21.0000   9.7500  17.0000 Du        
   8146 ****        21.0000   9.7500  17.2500 Du        
   8147 ****        21.0000  10.0000  16.7500 Du        
   8148 ****        21.0000  10.0000  17.0000 Du        
   8149 ****        21.0000  10.0000  17.2500 Du        
   8150 ****        21.2500 -14.0000  -1.7500 Du        
   8151 ****        21.2500 -14.0000  -1.5000 Du        
   8152 ****        21.2500 -14.0000  -1.2500 Du        
   8153 ****        21.2500 -13.7500  -2.0000 Du        
   8154 ****        21.2500 -13.7500  -1.7500 Du        
   8155 ****        21.2500 -13.7500  -1.5000 Du        
   8156 ****        21.2500 -13.7500  -1.2500 Du        
   8157 ****        21.2500 -13.5000  -2.0000 Du        
   8158 ****        21.2500 -13.5000  -1.7500 Du        
   8159 ****        21.2500 -13.5000  -1.5000 Du        
   8160 ****        21.2500 -13.5000  -1.2500 Du        
   8161 ****        21.2500 -13.2500  -2.2500 Du        
   8162 ****        21.2500 -13.2500  -2.0000 Du        
   8163 ****        21.2500 -13.2500  -1.7500 Du        
   8164 ****        21.2500 -13.2500  -1.5000 Du        
   8165 ****        21.2500 -13.2500  -1.2500 Du        
   8166 ****        21.2500 -13.0000  -2.2500 Du        
   8167 ****        21.2500 -13.0000  -2.0000 Du        
   8168 ****        21.2500 -13.0000  -1.7500 Du        
   8169 ****        21.2500 -13.0000  -1.5000 Du        
   8170 ****        21.2500 -12.7500  -2.5000 Du        
   8171 ****        21.2500 -12.7500  -2.2500 Du        
   8172 ****        21.2500 -12.7500  -2.0000 Du        
   8173 ****        21.2500 -12.7500  -1.7500 Du        
   8174 ****        21.2500 -12.7500  -1.5000 Du        
   8175 ****        21.2500 -12.5000  -2.5000 Du        
   8176 ****        21.2500 -12.5000  -2.2500 Du        
   8177 ****        21.2500 -12.5000  -2.0000 Du        
   8178 ****        21.2500 -12.5000  -1.7500 Du        
   8179 ****        21.2500 -12.5000  -1.5000 Du        
   8180 ****        21.2500 -12.2500  -2.5000 Du        
   8181 ****        21.2500 -12.2500  -2.2500 Du        
   8182 ****        21.2500 -12.2500  -2.0000 Du        
   8183 ****        21.2500 -12.2500  -1.7500 Du        
   8184 ****        21.2500 -12.2500  -1.5000 Du        
   8185 ****        21.2500 -12.0000  -2.7500 Du        
   8186 ****        21.2500 -12.0000  -2.5000 Du        
   8187 ****        21.2500 -12.0000  -2.2500 Du        
   8188 ****        21.2500 -12.0000  -2.0000 Du        
   8189 ****        21.2500 -12.0000  -1.7500 Du        
   8190 ****        21.2500 -12.0000  -1.5000 Du        
   8191 ****        21.2500 -11.7500  -2.7500 Du        
   8192 ****        21.2500 -11.7500  -2.5000 Du        
   8193 ****        21.2500 -11.7500  -2.2500 Du        
   8194 ****        21.2500 -11.7500  -2.0000 Du        
   8195 ****        21.2500 -11.7500  -1.7500 Du        
   8196 ****        21.2500 -11.7500  -1.5000 Du        
   8197 ****        21.2500 -11.5000  -2.7500 Du        
   8198 ****        21.2500 -11.5000  -2.5000 Du        
   8199 ****        21.2500 -11.5000  -2.2500 Du        
   8200 ****        21.2500 -11.5000  -2.0000 Du        
   8201 ****        21.2500 -11.5000  -1.7500 Du        
   8202 ****        21.2500 -11.5000  -1.5000 Du        
   8203 ****        21.2500 -11.2500  -3.0000 Du        
   8204 ****        21.2500 -11.2500  -2.7500 Du        
   8205 ****        21.2500 -11.2500  -2.5000 Du        
   8206 ****        21.2500 -11.2500  -2.2500 Du        
   8207 ****        21.2500 -11.2500  -2.0000 Du        
   8208 ****        21.2500 -11.2500  -1.7500 Du        
   8209 ****        21.2500 -11.2500  -1.5000 Du        
   8210 ****        21.2500 -11.0000  -8.0000 Du        
   8211 ****        21.2500 -11.0000  -3.0000 Du        
   8212 ****        21.2500 -11.0000  -2.7500 Du        
   8213 ****        21.2500 -11.0000  -2.5000 Du        
   8214 ****        21.2500 -11.0000  -2.2500 Du        
   8215 ****        21.2500 -11.0000  -2.0000 Du        
   8216 ****        21.2500 -11.0000  -1.7500 Du        
   8217 ****        21.2500 -11.0000  -1.5000 Du        
   8218 ****        21.2500 -10.7500  -8.2500 Du        
   8219 ****        21.2500 -10.7500  -8.0000 Du        
   8220 ****        21.2500 -10.7500  -7.7500 Du        
   8221 ****        21.2500 -10.7500  -3.2500 Du        
   8222 ****        21.2500 -10.7500  -3.0000 Du        
   8223 ****        21.2500 -10.7500  -2.7500 Du        
   8224 ****        21.2500 -10.7500  -2.5000 Du        
   8225 ****        21.2500 -10.7500  -2.2500 Du        
   8226 ****        21.2500 -10.7500  -2.0000 Du        
   8227 ****        21.2500 -10.7500  -1.7500 Du        
   8228 ****        21.2500 -10.7500  -1.5000 Du        
   8229 ****        21.2500 -10.7500  -1.2500 Du        
   8230 ****        21.2500 -10.5000  -8.0000 Du        
   8231 ****        21.2500 -10.5000  -7.7500 Du        
   8232 ****        21.2500 -10.5000  -3.5000 Du        
   8233 ****        21.2500 -10.5000  -3.2500 Du        
   8234 ****        21.2500 -10.5000  -3.0000 Du        
   8235 ****        21.2500 -10.5000  -2.7500 Du        
   8236 ****        21.2500 -10.5000  -2.5000 Du        
   8237 ****        21.2500 -10.5000  -2.2500 Du        
   8238 ****        21.2500 -10.5000  -2.0000 Du        
   8239 ****        21.2500 -10.5000  -1.7500 Du        
   8240 ****        21.2500 -10.2500  -3.7500 Du        
   8241 ****        21.2500 -10.2500  -3.5000 Du        
   8242 ****        21.2500 -10.2500  -3.2500 Du        
   8243 ****        21.2500 -10.2500  -3.0000 Du        
   8244 ****        21.2500 -10.2500  -2.7500 Du        
   8245 ****        21.2500 -10.2500  -2.5000 Du        
   8246 ****        21.2500 -10.2500  -2.0000 Du        
   8247 ****        21.2500 -10.2500  -1.7500 Du        
   8248 ****        21.2500 -10.0000  -4.2500 Du        
   8249 ****        21.2500 -10.0000  -4.0000 Du        
   8250 ****        21.2500 -10.0000  -3.7500 Du        
   8251 ****        21.2500 -10.0000  -3.5000 Du        
   8252 ****        21.2500 -10.0000  -3.2500 Du        
   8253 ****        21.2500 -10.0000  -3.0000 Du        
   8254 ****        21.2500 -10.0000  -2.7500 Du        
   8255 ****        21.2500 -10.0000  -2.5000 Du        
   8256 ****        21.2500  -9.7500  -4.2500 Du        
   8257 ****        21.2500  -9.7500  -4.0000 Du        
   8258 ****        21.2500  -9.7500  -3.7500 Du        
   8259 ****        21.2500  -9.7500  -3.5000 Du        
   8260 ****        21.2500  -9.7500  -3.2500 Du        
   8261 ****        21.2500  -9.7500  -3.0000 Du        
   8262 ****        21.2500  -9.7500  -2.7500 Du        
   8263 ****        21.2500  -9.5000  -4.2500 Du        
   8264 ****        21.2500  -9.5000  -4.0000 Du        
   8265 ****        21.2500  -9.5000  -3.7500 Du        
   8266 ****        21.2500  -9.5000  -3.5000 Du        
   8267 ****        21.2500  -9.5000  -3.2500 Du        
   8268 ****        21.2500  -9.2500  -4.5000 Du        
   8269 ****        21.2500  -9.2500  -4.2500 Du        
   8270 ****        21.2500  -9.2500  -4.0000 Du        
   8271 ****        21.2500  -9.2500  -3.7500 Du        
   8272 ****        21.2500  -9.2500  -3.5000 Du        
   8273 ****        21.2500  -9.0000  -4.2500 Du        
   8274 ****        21.2500  -9.0000  -4.0000 Du        
   8275 ****        21.2500  -9.0000  -3.7500 Du        
   8276 ****        21.2500  -8.7500  -4.2500 Du        
   8277 ****        21.2500  -8.7500  -4.0000 Du        
   8278 ****        21.2500  -8.7500  -3.7500 Du        
   8279 ****        21.2500  -8.5000  -4.2500 Du        
   8280 ****        21.2500  -8.5000  -4.0000 Du        
   8281 ****        21.2500  -8.5000  -3.7500 Du        
   8282 ****        21.2500  -8.2500  -4.2500 Du        
   8283 ****        21.2500  -8.2500  -4.0000 Du        
   8284 ****        21.2500  -8.0000  -4.5000 Du        
   8285 ****        21.2500  -8.0000  -4.2500 Du        
   8286 ****        21.2500  -8.0000  -4.0000 Du        
   8287 ****        21.2500  -7.7500  -4.5000 Du        
   8288 ****        21.2500  -7.7500  -4.2500 Du        
   8289 ****        21.2500  -7.7500  -4.0000 Du        
   8290 ****        21.2500  -7.5000  -4.5000 Du        
   8291 ****        21.2500  -7.5000  -4.2500 Du        
   8292 ****        21.2500  -7.5000  -4.0000 Du        
   8293 ****        21.2500  -7.2500  -4.5000 Du        
   8294 ****        21.2500  -7.2500  -4.2500 Du        
   8295 ****        21.2500  -7.2500  -4.0000 Du        
   8296 ****        21.2500  -7.0000  -4.5000 Du        
   8297 ****        21.2500  -7.0000  -4.2500 Du        
   8298 ****        21.2500  -7.0000  -4.0000 Du        
   8299 ****        21.2500  -7.0000   8.7500 Du        
   8300 ****        21.2500  -6.7500   8.2500 Du        
   8301 ****        21.2500  -6.7500   8.5000 Du        
   8302 ****        21.2500  -6.7500   8.7500 Du        
   8303 ****        21.2500  -6.7500   9.0000 Du        
   8304 ****        21.2500  -6.5000   8.5000 Du        
   8305 ****        21.2500  -3.2500  15.0000 Du        
   8306 ****        21.2500   9.2500  16.7500 Du        
   8307 ****        21.2500   9.2500  17.0000 Du        
   8308 ****        21.2500   9.2500  17.2500 Du        
   8309 ****        21.2500   9.5000  16.5000 Du        
   8310 ****        21.2500   9.5000  16.7500 Du        
   8311 ****        21.2500   9.5000  17.0000 Du        
   8312 ****        21.2500   9.5000  17.2500 Du        
   8313 ****        21.2500   9.7500  16.7500 Du        
   8314 ****        21.2500   9.7500  17.0000 Du        
   8315 ****        21.2500   9.7500  17.2500 Du        
   8316 ****        21.2500  10.0000  17.0000 Du        
   8317 ****        21.5000 -14.2500  -1.5000 Du        
   8318 ****        21.5000 -14.0000  -1.7500 Du        
   8319 ****        21.5000 -14.0000  -1.5000 Du        
   8320 ****        21.5000 -14.0000  -1.2500 Du        
   8321 ****        21.5000 -14.0000  -1.0000 Du        
   8322 ****        21.5000 -13.7500  -2.0000 Du        
   8323 ****        21.5000 -13.7500  -1.7500 Du        
   8324 ****        21.5000 -13.7500  -1.5000 Du        
   8325 ****        21.5000 -13.7500  -1.2500 Du        
   8326 ****        21.5000 -13.7500  -1.0000 Du        
   8327 ****        21.5000 -13.5000  -2.2500 Du        
   8328 ****        21.5000 -13.5000  -2.0000 Du        
   8329 ****        21.5000 -13.5000  -1.7500 Du        
   8330 ****        21.5000 -13.5000  -1.5000 Du        
   8331 ****        21.5000 -13.5000  -1.2500 Du        
   8332 ****        21.5000 -13.5000  -1.0000 Du        
   8333 ****        21.5000 -13.2500  -2.2500 Du        
   8334 ****        21.5000 -13.2500  -2.0000 Du        
   8335 ****        21.5000 -13.2500  -1.7500 Du        
   8336 ****        21.5000 -13.2500  -1.5000 Du        
   8337 ****        21.5000 -13.2500  -1.2500 Du        
   8338 ****        21.5000 -13.0000  -2.5000 Du        
   8339 ****        21.5000 -13.0000  -2.2500 Du        
   8340 ****        21.5000 -13.0000  -2.0000 Du        
   8341 ****        21.5000 -13.0000  -1.7500 Du        
   8342 ****        21.5000 -13.0000  -1.5000 Du        
   8343 ****        21.5000 -13.0000  -1.2500 Du        
   8344 ****        21.5000 -12.7500  -2.5000 Du        
   8345 ****        21.5000 -12.7500  -2.2500 Du        
   8346 ****        21.5000 -12.7500  -2.0000 Du        
   8347 ****        21.5000 -12.7500  -1.7500 Du        
   8348 ****        21.5000 -12.7500  -1.5000 Du        
   8349 ****        21.5000 -12.7500  -1.2500 Du        
   8350 ****        21.5000 -12.5000  -2.5000 Du        
   8351 ****        21.5000 -12.5000  -2.2500 Du        
   8352 ****        21.5000 -12.5000  -2.0000 Du        
   8353 ****        21.5000 -12.5000  -1.7500 Du        
   8354 ****        21.5000 -12.5000  -1.5000 Du        
   8355 ****        21.5000 -12.5000  -1.2500 Du        
   8356 ****        21.5000 -12.2500  -2.7500 Du        
   8357 ****        21.5000 -12.2500  -2.5000 Du        
   8358 ****        21.5000 -12.2500  -2.2500 Du        
   8359 ****        21.5000 -12.2500  -2.0000 Du        
   8360 ****        21.5000 -12.2500  -1.7500 Du        
   8361 ****        21.5000 -12.2500  -1.5000 Du        
   8362 ****        21.5000 -12.0000  -2.7500 Du        
   8363 ****        21.5000 -12.0000  -2.5000 Du        
   8364 ****        21.5000 -12.0000  -2.2500 Du        
   8365 ****        21.5000 -12.0000  -2.0000 Du        
   8366 ****        21.5000 -12.0000  -1.7500 Du        
   8367 ****        21.5000 -12.0000  -1.5000 Du        
   8368 ****        21.5000 -12.0000  -1.2500 Du        
   8369 ****        21.5000 -11.7500  -3.0000 Du        
   8370 ****        21.5000 -11.7500  -2.7500 Du        
   8371 ****        21.5000 -11.7500  -2.5000 Du        
   8372 ****        21.5000 -11.7500  -2.2500 Du        
   8373 ****        21.5000 -11.7500  -2.0000 Du        
   8374 ****        21.5000 -11.7500  -1.7500 Du        
   8375 ****        21.5000 -11.7500  -1.5000 Du        
   8376 ****        21.5000 -11.7500  -1.2500 Du        
   8377 ****        21.5000 -11.5000  -3.0000 Du        
   8378 ****        21.5000 -11.5000  -2.7500 Du        
   8379 ****        21.5000 -11.5000  -2.5000 Du        
   8380 ****        21.5000 -11.5000  -2.2500 Du        
   8381 ****        21.5000 -11.5000  -2.0000 Du        
   8382 ****        21.5000 -11.5000  -1.7500 Du        
   8383 ****        21.5000 -11.5000  -1.5000 Du        
   8384 ****        21.5000 -11.2500  -3.0000 Du        
   8385 ****        21.5000 -11.2500  -2.7500 Du        
   8386 ****        21.5000 -11.2500  -2.5000 Du        
   8387 ****        21.5000 -11.2500  -2.2500 Du        
   8388 ****        21.5000 -11.2500  -2.0000 Du        
   8389 ****        21.5000 -11.2500  -1.7500 Du        
   8390 ****        21.5000 -11.2500  -1.5000 Du        
   8391 ****        21.5000 -11.2500  -1.2500 Du        
   8392 ****        21.5000 -11.0000  -8.0000 Du        
   8393 ****        21.5000 -11.0000  -7.7500 Du        
   8394 ****        21.5000 -11.0000  -3.2500 Du        
   8395 ****        21.5000 -11.0000  -3.0000 Du        
   8396 ****        21.5000 -11.0000  -2.7500 Du        
   8397 ****        21.5000 -11.0000  -2.5000 Du        
   8398 ****        21.5000 -11.0000  -2.2500 Du        
   8399 ****        21.5000 -11.0000  -2.0000 Du        
   8400 ****        21.5000 -11.0000  -1.7500 Du        
   8401 ****        21.5000 -11.0000  -1.5000 Du        
   8402 ****        21.5000 -11.0000  -1.2500 Du        
   8403 ****        21.5000 -10.7500  -8.0000 Du        
   8404 ****        21.5000 -10.7500  -7.7500 Du        
   8405 ****        21.5000 -10.7500  -3.5000 Du        
   8406 ****        21.5000 -10.7500  -3.2500 Du        
   8407 ****        21.5000 -10.7500  -3.0000 Du        
   8408 ****        21.5000 -10.7500  -2.7500 Du        
   8409 ****        21.5000 -10.7500  -2.5000 Du        
   8410 ****        21.5000 -10.7500  -2.2500 Du        
   8411 ****        21.5000 -10.7500  -2.0000 Du        
   8412 ****        21.5000 -10.7500  -1.7500 Du        
   8413 ****        21.5000 -10.7500  -1.5000 Du        
   8414 ****        21.5000 -10.7500  -1.2500 Du        
   8415 ****        21.5000 -10.5000  -3.7500 Du        
   8416 ****        21.5000 -10.5000  -3.5000 Du        
   8417 ****        21.5000 -10.5000  -3.2500 Du        
   8418 ****        21.5000 -10.5000  -3.0000 Du        
   8419 ****        21.5000 -10.5000  -2.7500 Du        
   8420 ****        21.5000 -10.5000  -2.5000 Du        
   8421 ****        21.5000 -10.5000  -2.2500 Du        
   8422 ****        21.5000 -10.5000  -2.0000 Du        
   8423 ****        21.5000 -10.2500  -4.0000 Du        
   8424 ****        21.5000 -10.2500  -3.7500 Du        
   8425 ****        21.5000 -10.2500  -3.5000 Du        
   8426 ****        21.5000 -10.2500  -3.2500 Du        
   8427 ****        21.5000 -10.2500  -3.0000 Du        
   8428 ****        21.5000 -10.2500  -2.7500 Du        
   8429 ****        21.5000 -10.2500  -2.5000 Du        
   8430 ****        21.5000 -10.0000  -4.2500 Du        
   8431 ****        21.5000 -10.0000  -4.0000 Du        
   8432 ****        21.5000 -10.0000  -3.7500 Du        
   8433 ****        21.5000 -10.0000  -3.5000 Du        
   8434 ****        21.5000 -10.0000  -3.2500 Du        
   8435 ****        21.5000 -10.0000  -3.0000 Du        
   8436 ****        21.5000 -10.0000  -2.7500 Du        
   8437 ****        21.5000  -9.7500  -4.2500 Du        
   8438 ****        21.5000  -9.7500  -4.0000 Du        
   8439 ****        21.5000  -9.7500  -3.7500 Du        
   8440 ****        21.5000  -9.7500  -3.5000 Du        
   8441 ****        21.5000  -9.7500  -3.2500 Du        
   8442 ****        21.5000  -9.7500  -3.0000 Du        
   8443 ****        21.5000  -9.5000  -4.2500 Du        
   8444 ****        21.5000  -9.5000  -4.0000 Du        
   8445 ****        21.5000  -9.5000  -3.7500 Du        
   8446 ****        21.5000  -9.5000  -3.5000 Du        
   8447 ****        21.5000  -9.2500  -4.0000 Du        
   8448 ****        21.5000  -9.2500  -3.7500 Du        
   8449 ****        21.5000  -7.5000   1.7500 Du        
   8450 ****        21.5000  -7.5000   2.0000 Du        
   8451 ****        21.5000  -7.5000   2.2500 Du        
   8452 ****        21.5000  -7.2500  -4.5000 Du        
   8453 ****        21.5000  -7.2500   1.7500 Du        
   8454 ****        21.5000  -7.2500   2.0000 Du        
   8455 ****        21.5000  -7.2500   2.2500 Du        
   8456 ****        21.5000  -7.2500   7.7500 Du        
   8457 ****        21.5000  -7.2500   8.0000 Du        
   8458 ****        21.5000  -7.2500   8.2500 Du        
   8459 ****        21.5000  -7.2500   8.5000 Du        
   8460 ****        21.5000  -7.2500   8.7500 Du        
   8461 ****        21.5000  -7.2500   9.0000 Du        
   8462 ****        21.5000  -7.0000  -4.5000 Du        
   8463 ****        21.5000  -7.0000  -4.2500 Du        
   8464 ****        21.5000  -7.0000   2.2500 Du        
   8465 ****        21.5000  -7.0000   7.5000 Du        
   8466 ****        21.5000  -7.0000   7.7500 Du        
   8467 ****        21.5000  -7.0000   8.0000 Du        
   8468 ****        21.5000  -7.0000   8.2500 Du        
   8469 ****        21.5000  -7.0000   8.5000 Du        
   8470 ****        21.5000  -7.0000   8.7500 Du        
   8471 ****        21.5000  -7.0000   9.0000 Du        
   8472 ****        21.5000  -7.0000   9.2500 Du        
   8473 ****        21.5000  -6.7500  -4.5000 Du        
   8474 ****        21.5000  -6.7500   7.7500 Du        
   8475 ****        21.5000  -6.7500   8.0000 Du        
   8476 ****        21.5000  -6.7500   8.2500 Du        
   8477 ****        21.5000  -6.7500   8.5000 Du        
   8478 ****        21.5000  -6.7500   8.7500 Du        
   8479 ****        21.5000  -6.7500   9.0000 Du        
   8480 ****        21.5000  -6.7500   9.2500 Du        
   8481 ****        21.5000  -6.5000   8.0000 Du        
   8482 ****        21.5000  -6.5000   8.2500 Du        
   8483 ****        21.5000  -6.5000   8.5000 Du        
   8484 ****        21.5000  -6.5000   8.7500 Du        
   8485 ****        21.5000  -6.5000   9.0000 Du        
   8486 ****        21.5000  -6.2500   8.0000 Du        
   8487 ****        21.5000  -6.2500   8.2500 Du        
   8488 ****        21.5000  -6.2500   8.5000 Du        
   8489 ****        21.5000  -3.7500  15.0000 Du        
   8490 ****        21.5000  -3.5000  14.5000 Du        
   8491 ****        21.5000  -3.5000  14.7500 Du        
   8492 ****        21.5000  -3.5000  15.0000 Du        
   8493 ****        21.5000  -3.5000  15.2500 Du        
   8494 ****        21.5000  -3.2500  14.7500 Du        
   8495 ****        21.5000  -3.2500  15.0000 Du        
   8496 ****        21.5000  -3.2500  15.2500 Du        
   8497 ****        21.5000   9.2500  17.2500 Du        
   8498 ****        21.5000   9.5000  17.0000 Du        
   8499 ****        21.5000   9.5000  17.2500 Du        
   8500 ****        21.7500 -14.2500  -1.5000 Du        
   8501 ****        21.7500 -14.2500  -1.2500 Du        
   8502 ****        21.7500 -14.2500  -1.0000 Du        
   8503 ****        21.7500 -14.0000  -1.7500 Du        
   8504 ****        21.7500 -14.0000  -1.5000 Du        
   8505 ****        21.7500 -14.0000  -1.2500 Du        
   8506 ****        21.7500 -14.0000  -1.0000 Du        
   8507 ****        21.7500 -14.0000  -0.7500 Du        
   8508 ****        21.7500 -13.7500  -2.0000 Du        
   8509 ****        21.7500 -13.7500  -1.7500 Du        
   8510 ****        21.7500 -13.7500  -1.5000 Du        
   8511 ****        21.7500 -13.7500  -1.2500 Du        
   8512 ****        21.7500 -13.7500  -1.0000 Du        
   8513 ****        21.7500 -13.7500  -0.7500 Du        
   8514 ****        21.7500 -13.5000  -2.2500 Du        
   8515 ****        21.7500 -13.5000  -2.0000 Du        
   8516 ****        21.7500 -13.5000  -1.7500 Du        
   8517 ****        21.7500 -13.5000  -1.5000 Du        
   8518 ****        21.7500 -13.5000  -1.2500 Du        
   8519 ****        21.7500 -13.5000  -1.0000 Du        
   8520 ****        21.7500 -13.2500  -2.2500 Du        
   8521 ****        21.7500 -13.2500  -2.0000 Du        
   8522 ****        21.7500 -13.2500  -1.7500 Du        
   8523 ****        21.7500 -13.2500  -1.5000 Du        
   8524 ****        21.7500 -13.2500  -1.2500 Du        
   8525 ****        21.7500 -13.2500  -1.0000 Du        
   8526 ****        21.7500 -13.0000  -2.5000 Du        
   8527 ****        21.7500 -13.0000  -2.2500 Du        
   8528 ****        21.7500 -13.0000  -2.0000 Du        
   8529 ****        21.7500 -13.0000  -1.7500 Du        
   8530 ****        21.7500 -13.0000  -1.5000 Du        
   8531 ****        21.7500 -13.0000  -1.2500 Du        
   8532 ****        21.7500 -13.0000  -1.0000 Du        
   8533 ****        21.7500 -12.7500  -2.5000 Du        
   8534 ****        21.7500 -12.7500  -2.2500 Du        
   8535 ****        21.7500 -12.7500  -2.0000 Du        
   8536 ****        21.7500 -12.7500  -1.7500 Du        
   8537 ****        21.7500 -12.7500  -1.5000 Du        
   8538 ****        21.7500 -12.7500  -1.2500 Du        
   8539 ****        21.7500 -12.5000  -2.7500 Du        
   8540 ****        21.7500 -12.5000  -2.5000 Du        
   8541 ****        21.7500 -12.5000  -2.2500 Du        
   8542 ****        21.7500 -12.5000  -2.0000 Du        
   8543 ****        21.7500 -12.5000  -1.7500 Du        
   8544 ****        21.7500 -12.5000  -1.5000 Du        
   8545 ****        21.7500 -12.5000  -1.2500 Du        
   8546 ****        21.7500 -12.2500  -2.7500 Du        
   8547 ****        21.7500 -12.2500  -2.5000 Du        
   8548 ****        21.7500 -12.2500  -2.2500 Du        
   8549 ****        21.7500 -12.2500  -2.0000 Du        
   8550 ****        21.7500 -12.2500  -1.7500 Du        
   8551 ****        21.7500 -12.2500  -1.5000 Du        
   8552 ****        21.7500 -12.2500  -1.2500 Du        
   8553 ****        21.7500 -12.0000  -3.0000 Du        
   8554 ****        21.7500 -12.0000  -2.7500 Du        
   8555 ****        21.7500 -12.0000  -2.5000 Du        
   8556 ****        21.7500 -12.0000  -2.2500 Du        
   8557 ****        21.7500 -12.0000  -2.0000 Du        
   8558 ****        21.7500 -12.0000  -1.7500 Du        
   8559 ****        21.7500 -12.0000  -1.5000 Du        
   8560 ****        21.7500 -12.0000  -1.2500 Du        
   8561 ****        21.7500 -11.7500  -3.0000 Du        
   8562 ****        21.7500 -11.7500  -2.7500 Du        
   8563 ****        21.7500 -11.7500  -2.5000 Du        
   8564 ****        21.7500 -11.7500  -2.2500 Du        
   8565 ****        21.7500 -11.7500  -2.0000 Du        
   8566 ****        21.7500 -11.7500  -1.7500 Du        
   8567 ****        21.7500 -11.7500  -1.5000 Du        
   8568 ****        21.7500 -11.7500  -1.2500 Du        
   8569 ****        21.7500 -11.5000  -3.2500 Du        
   8570 ****        21.7500 -11.5000  -3.0000 Du        
   8571 ****        21.7500 -11.5000  -2.7500 Du        
   8572 ****        21.7500 -11.5000  -2.5000 Du        
   8573 ****        21.7500 -11.5000  -2.2500 Du        
   8574 ****        21.7500 -11.5000  -2.0000 Du        
   8575 ****        21.7500 -11.5000  -1.7500 Du        
   8576 ****        21.7500 -11.5000  -1.5000 Du        
   8577 ****        21.7500 -11.5000  -1.2500 Du        
   8578 ****        21.7500 -11.2500  -3.2500 Du        
   8579 ****        21.7500 -11.2500  -3.0000 Du        
   8580 ****        21.7500 -11.2500  -2.7500 Du        
   8581 ****        21.7500 -11.2500  -2.5000 Du        
   8582 ****        21.7500 -11.2500  -2.2500 Du        
   8583 ****        21.7500 -11.2500  -2.0000 Du        
   8584 ****        21.7500 -11.2500  -1.7500 Du        
   8585 ****        21.7500 -11.2500  -1.5000 Du        
   8586 ****        21.7500 -11.2500  -1.2500 Du        
   8587 ****        21.7500 -11.2500  -1.0000 Du        
   8588 ****        21.7500 -11.0000  -7.7500 Du        
   8589 ****        21.7500 -11.0000  -3.5000 Du        
   8590 ****        21.7500 -11.0000  -3.2500 Du        
   8591 ****        21.7500 -11.0000  -3.0000 Du        
   8592 ****        21.7500 -11.0000  -2.7500 Du        
   8593 ****        21.7500 -11.0000  -2.5000 Du        
   8594 ****        21.7500 -11.0000  -2.2500 Du        
   8595 ****        21.7500 -11.0000  -2.0000 Du        
   8596 ****        21.7500 -11.0000  -1.7500 Du        
   8597 ****        21.7500 -11.0000  -1.5000 Du        
   8598 ****        21.7500 -11.0000  -1.2500 Du        
   8599 ****        21.7500 -11.0000  -1.0000 Du        
   8600 ****        21.7500 -10.7500  -3.5000 Du        
   8601 ****        21.7500 -10.7500  -3.2500 Du        
   8602 ****        21.7500 -10.7500  -3.0000 Du        
   8603 ****        21.7500 -10.7500  -2.7500 Du        
   8604 ****        21.7500 -10.7500  -2.5000 Du        
   8605 ****        21.7500 -10.7500  -2.2500 Du        
   8606 ****        21.7500 -10.7500  -2.0000 Du        
   8607 ****        21.7500 -10.7500  -1.7500 Du        
   8608 ****        21.7500 -10.7500  -1.5000 Du        
   8609 ****        21.7500 -10.7500  -1.2500 Du        
   8610 ****        21.7500 -10.5000  -4.0000 Du        
   8611 ****        21.7500 -10.5000  -3.7500 Du        
   8612 ****        21.7500 -10.5000  -3.5000 Du        
   8613 ****        21.7500 -10.5000  -3.2500 Du        
   8614 ****        21.7500 -10.5000  -3.0000 Du        
   8615 ****        21.7500 -10.5000  -2.7500 Du        
   8616 ****        21.7500 -10.5000  -2.5000 Du        
   8617 ****        21.7500 -10.5000  -2.2500 Du        
   8618 ****        21.7500 -10.5000  -2.0000 Du        
   8619 ****        21.7500 -10.2500  -4.2500 Du        
   8620 ****        21.7500 -10.2500  -4.0000 Du        
   8621 ****        21.7500 -10.2500  -3.7500 Du        
   8622 ****        21.7500 -10.2500  -3.5000 Du        
   8623 ****        21.7500 -10.2500  -3.2500 Du        
   8624 ****        21.7500 -10.2500  -3.0000 Du        
   8625 ****        21.7500 -10.2500  -2.7500 Du        
   8626 ****        21.7500 -10.2500  -2.5000 Du        
   8627 ****        21.7500 -10.0000  -4.2500 Du        
   8628 ****        21.7500 -10.0000  -4.0000 Du        
   8629 ****        21.7500 -10.0000  -3.7500 Du        
   8630 ****        21.7500 -10.0000  -3.5000 Du        
   8631 ****        21.7500 -10.0000  -3.2500 Du        
   8632 ****        21.7500 -10.0000  -3.0000 Du        
   8633 ****        21.7500 -10.0000  -2.7500 Du        
   8634 ****        21.7500  -9.7500  -4.2500 Du        
   8635 ****        21.7500  -9.7500  -4.0000 Du        
   8636 ****        21.7500  -9.7500  -3.7500 Du        
   8637 ****        21.7500  -9.7500  -3.5000 Du        
   8638 ****        21.7500  -7.7500   2.0000 Du        
   8639 ****        21.7500  -7.7500   2.2500 Du        
   8640 ****        21.7500  -7.5000   1.2500 Du        
   8641 ****        21.7500  -7.5000   1.5000 Du        
   8642 ****        21.7500  -7.5000   1.7500 Du        
   8643 ****        21.7500  -7.5000   2.0000 Du        
   8644 ****        21.7500  -7.5000   2.2500 Du        
   8645 ****        21.7500  -7.5000   7.2500 Du        
   8646 ****        21.7500  -7.5000   7.5000 Du        
   8647 ****        21.7500  -7.5000   7.7500 Du        
   8648 ****        21.7500  -7.5000   8.7500 Du        
   8649 ****        21.7500  -7.2500   1.5000 Du        
   8650 ****        21.7500  -7.2500   1.7500 Du        
   8651 ****        21.7500  -7.2500   2.0000 Du        
   8652 ****        21.7500  -7.2500   2.2500 Du        
   8653 ****        21.7500  -7.2500   2.5000 Du        
   8654 ****        21.7500  -7.2500   2.7500 Du        
   8655 ****        21.7500  -7.2500   7.2500 Du        
   8656 ****        21.7500  -7.2500   7.5000 Du        
   8657 ****        21.7500  -7.2500   7.7500 Du        
   8658 ****        21.7500  -7.2500   8.0000 Du        
   8659 ****        21.7500  -7.2500   8.2500 Du        
   8660 ****        21.7500  -7.2500   8.5000 Du        
   8661 ****        21.7500  -7.2500   8.7500 Du        
   8662 ****        21.7500  -7.2500   9.0000 Du        
   8663 ****        21.7500  -7.2500   9.2500 Du        
   8664 ****        21.7500  -7.2500   9.5000 Du        
   8665 ****        21.7500  -7.2500   9.7500 Du        
   8666 ****        21.7500  -7.0000   2.0000 Du        
   8667 ****        21.7500  -7.0000   2.2500 Du        
   8668 ****        21.7500  -7.0000   7.5000 Du        
   8669 ****        21.7500  -7.0000   7.7500 Du        
   8670 ****        21.7500  -7.0000   8.0000 Du        
   8671 ****        21.7500  -7.0000   8.2500 Du        
   8672 ****        21.7500  -7.0000   8.5000 Du        
   8673 ****        21.7500  -7.0000   8.7500 Du        
   8674 ****        21.7500  -7.0000   9.0000 Du        
   8675 ****        21.7500  -7.0000   9.2500 Du        
   8676 ****        21.7500  -7.0000   9.5000 Du        
   8677 ****        21.7500  -6.7500   7.5000 Du        
   8678 ****        21.7500  -6.7500   7.7500 Du        
   8679 ****        21.7500  -6.7500   8.0000 Du        
   8680 ****        21.7500  -6.7500   8.2500 Du        
   8681 ****        21.7500  -6.7500   8.5000 Du        
   8682 ****        21.7500  -6.7500   8.7500 Du        
   8683 ****        21.7500  -6.7500   9.0000 Du        
   8684 ****        21.7500  -6.7500   9.2500 Du        
   8685 ****        21.7500  -6.5000   7.7500 Du        
   8686 ****        21.7500  -6.5000   8.0000 Du        
   8687 ****        21.7500  -6.5000   8.2500 Du        
   8688 ****        21.7500  -6.5000   8.5000 Du        
   8689 ****        21.7500  -6.5000   8.7500 Du        
   8690 ****        21.7500  -6.5000   9.0000 Du        
   8691 ****        21.7500  -6.2500   8.0000 Du        
   8692 ****        21.7500  -6.2500   8.2500 Du        
   8693 ****        21.7500  -6.2500   8.5000 Du        
   8694 ****        21.7500  -4.0000  15.0000 Du        
   8695 ****        21.7500  -3.7500  14.7500 Du        
   8696 ****        21.7500  -3.7500  15.0000 Du        
   8697 ****        21.7500  -3.7500  15.2500 Du        
   8698 ****        21.7500  -3.5000  14.5000 Du        
   8699 ****        21.7500  -3.5000  14.7500 Du        
   8700 ****        21.7500  -3.5000  15.0000 Du        
   8701 ****        21.7500  -3.5000  15.2500 Du        
   8702 ****        21.7500  -3.2500  14.5000 Du        
   8703 ****        21.7500  -3.2500  14.7500 Du        
   8704 ****        21.7500  -3.2500  15.0000 Du        
   8705 ****        21.7500  -3.2500  15.2500 Du        
   8706 ****        22.0000 -14.2500  -1.5000 Du        
   8707 ****        22.0000 -14.2500  -1.2500 Du        
   8708 ****        22.0000 -14.2500  -1.0000 Du        
   8709 ****        22.0000 -14.2500  -0.7500 Du        
   8710 ****        22.0000 -14.0000  -1.7500 Du        
   8711 ****        22.0000 -14.0000  -1.5000 Du        
   8712 ****        22.0000 -14.0000  -1.2500 Du        
   8713 ****        22.0000 -14.0000  -1.0000 Du        
   8714 ****        22.0000 -14.0000  -0.7500 Du        
   8715 ****        22.0000 -14.0000  -0.5000 Du        
   8716 ****        22.0000 -13.7500  -1.7500 Du        
   8717 ****        22.0000 -13.7500  -1.5000 Du        
   8718 ****        22.0000 -13.7500  -1.2500 Du        
   8719 ****        22.0000 -13.7500  -1.0000 Du        
   8720 ****        22.0000 -13.7500  -0.7500 Du        
   8721 ****        22.0000 -13.7500  -0.5000 Du        
   8722 ****        22.0000 -13.5000  -2.0000 Du        
   8723 ****        22.0000 -13.5000  -1.7500 Du        
   8724 ****        22.0000 -13.5000  -1.5000 Du        
   8725 ****        22.0000 -13.5000  -1.2500 Du        
   8726 ****        22.0000 -13.5000  -1.0000 Du        
   8727 ****        22.0000 -13.5000  -0.7500 Du        
   8728 ****        22.0000 -13.2500  -2.2500 Du        
   8729 ****        22.0000 -13.2500  -2.0000 Du        
   8730 ****        22.0000 -13.2500  -1.7500 Du        
   8731 ****        22.0000 -13.2500  -1.5000 Du        
   8732 ****        22.0000 -13.2500  -1.2500 Du        
   8733 ****        22.0000 -13.2500  -1.0000 Du        
   8734 ****        22.0000 -13.2500  -0.7500 Du        
   8735 ****        22.0000 -13.0000  -2.5000 Du        
   8736 ****        22.0000 -13.0000  -2.2500 Du        
   8737 ****        22.0000 -13.0000  -2.0000 Du        
   8738 ****        22.0000 -13.0000  -1.7500 Du        
   8739 ****        22.0000 -13.0000  -1.5000 Du        
   8740 ****        22.0000 -13.0000  -1.2500 Du        
   8741 ****        22.0000 -13.0000  -1.0000 Du        
   8742 ****        22.0000 -13.0000  -0.7500 Du        
   8743 ****        22.0000 -12.7500  -2.7500 Du        
   8744 ****        22.0000 -12.7500  -2.5000 Du        
   8745 ****        22.0000 -12.7500  -2.2500 Du        
   8746 ****        22.0000 -12.7500  -2.0000 Du        
   8747 ****        22.0000 -12.7500  -1.7500 Du        
   8748 ****        22.0000 -12.7500  -1.5000 Du        
   8749 ****        22.0000 -12.7500  -1.2500 Du        
   8750 ****        22.0000 -12.7500  -1.0000 Du        
   8751 ****        22.0000 -12.5000  -2.7500 Du        
   8752 ****        22.0000 -12.5000  -2.5000 Du        
   8753 ****        22.0000 -12.5000  -2.2500 Du        
   8754 ****        22.0000 -12.5000  -2.0000 Du        
   8755 ****        22.0000 -12.5000  -1.7500 Du        
   8756 ****        22.0000 -12.5000  -1.5000 Du        
   8757 ****        22.0000 -12.5000  -1.2500 Du        
   8758 ****        22.0000 -12.5000  -1.0000 Du        
   8759 ****        22.0000 -12.2500  -3.0000 Du        
   8760 ****        22.0000 -12.2500  -2.7500 Du        
   8761 ****        22.0000 -12.2500  -2.5000 Du        
   8762 ****        22.0000 -12.2500  -2.2500 Du        
   8763 ****        22.0000 -12.2500  -2.0000 Du        
   8764 ****        22.0000 -12.2500  -1.7500 Du        
   8765 ****        22.0000 -12.2500  -1.5000 Du        
   8766 ****        22.0000 -12.2500  -1.2500 Du        
   8767 ****        22.0000 -12.2500  -1.0000 Du        
   8768 ****        22.0000 -12.0000  -3.0000 Du        
   8769 ****        22.0000 -12.0000  -2.7500 Du        
   8770 ****        22.0000 -12.0000  -2.5000 Du        
   8771 ****        22.0000 -12.0000  -2.2500 Du        
   8772 ****        22.0000 -12.0000  -2.0000 Du        
   8773 ****        22.0000 -12.0000  -1.7500 Du        
   8774 ****        22.0000 -12.0000  -1.5000 Du        
   8775 ****        22.0000 -12.0000  -1.2500 Du        
   8776 ****        22.0000 -12.0000  -1.0000 Du        
   8777 ****        22.0000 -11.7500  -3.2500 Du        
   8778 ****        22.0000 -11.7500  -3.0000 Du        
   8779 ****        22.0000 -11.7500  -2.7500 Du        
   8780 ****        22.0000 -11.7500  -2.5000 Du        
   8781 ****        22.0000 -11.7500  -2.2500 Du        
   8782 ****        22.0000 -11.7500  -2.0000 Du        
   8783 ****        22.0000 -11.7500  -1.7500 Du        
   8784 ****        22.0000 -11.7500  -1.5000 Du        
   8785 ****        22.0000 -11.7500  -1.2500 Du        
   8786 ****        22.0000 -11.7500  -1.0000 Du        
   8787 ****        22.0000 -11.5000  -3.2500 Du        
   8788 ****        22.0000 -11.5000  -3.0000 Du        
   8789 ****        22.0000 -11.5000  -2.7500 Du        
   8790 ****        22.0000 -11.5000  -2.5000 Du        
   8791 ****        22.0000 -11.5000  -2.2500 Du        
   8792 ****        22.0000 -11.5000  -2.0000 Du        
   8793 ****        22.0000 -11.5000  -1.7500 Du        
   8794 ****        22.0000 -11.5000  -1.5000 Du        
   8795 ****        22.0000 -11.5000  -1.2500 Du        
   8796 ****        22.0000 -11.5000  -1.0000 Du        
   8797 ****        22.0000 -11.2500  -3.5000 Du        
   8798 ****        22.0000 -11.2500  -3.2500 Du        
   8799 ****        22.0000 -11.2500  -3.0000 Du        
   8800 ****        22.0000 -11.2500  -2.7500 Du        
   8801 ****        22.0000 -11.2500  -2.5000 Du        
   8802 ****        22.0000 -11.2500  -2.2500 Du        
   8803 ****        22.0000 -11.2500  -2.0000 Du        
   8804 ****        22.0000 -11.2500  -1.7500 Du        
   8805 ****        22.0000 -11.2500  -1.5000 Du        
   8806 ****        22.0000 -11.2500  -1.2500 Du        
   8807 ****        22.0000 -11.2500  -1.0000 Du        
   8808 ****        22.0000 -11.0000  -3.5000 Du        
   8809 ****        22.0000 -11.0000  -3.2500 Du        
   8810 ****        22.0000 -11.0000  -3.0000 Du        
   8811 ****        22.0000 -11.0000  -2.7500 Du        
   8812 ****        22.0000 -11.0000  -2.5000 Du        
   8813 ****        22.0000 -11.0000  -2.2500 Du        
   8814 ****        22.0000 -11.0000  -2.0000 Du        
   8815 ****        22.0000 -11.0000  -1.7500 Du        
   8816 ****        22.0000 -11.0000  -1.5000 Du        
   8817 ****        22.0000 -11.0000  -1.2500 Du        
   8818 ****        22.0000 -11.0000  -1.0000 Du        
   8819 ****        22.0000 -11.0000  -0.7500 Du        
   8820 ****        22.0000 -10.7500  -4.0000 Du        
   8821 ****        22.0000 -10.7500  -3.7500 Du        
   8822 ****        22.0000 -10.7500  -3.5000 Du        
   8823 ****        22.0000 -10.7500  -3.2500 Du        
   8824 ****        22.0000 -10.7500  -3.0000 Du        
   8825 ****        22.0000 -10.7500  -2.7500 Du        
   8826 ****        22.0000 -10.7500  -2.5000 Du        
   8827 ****        22.0000 -10.7500  -2.2500 Du        
   8828 ****        22.0000 -10.7500  -2.0000 Du        
   8829 ****        22.0000 -10.7500  -1.7500 Du        
   8830 ****        22.0000 -10.7500  -1.5000 Du        
   8831 ****        22.0000 -10.7500  -1.2500 Du        
   8832 ****        22.0000 -10.7500  -1.0000 Du        
   8833 ****        22.0000 -10.5000  -4.2500 Du        
   8834 ****        22.0000 -10.5000  -4.0000 Du        
   8835 ****        22.0000 -10.5000  -3.7500 Du        
   8836 ****        22.0000 -10.5000  -3.5000 Du        
   8837 ****        22.0000 -10.5000  -3.2500 Du        
   8838 ****        22.0000 -10.5000  -3.0000 Du        
   8839 ****        22.0000 -10.5000  -2.7500 Du        
   8840 ****        22.0000 -10.5000  -2.5000 Du        
   8841 ****        22.0000 -10.5000  -2.2500 Du        
   8842 ****        22.0000 -10.5000  -2.0000 Du        
   8843 ****        22.0000 -10.2500  -4.2500 Du        
   8844 ****        22.0000 -10.2500  -4.0000 Du        
   8845 ****        22.0000 -10.2500  -3.7500 Du        
   8846 ****        22.0000 -10.2500  -3.5000 Du        
   8847 ****        22.0000 -10.2500  -3.2500 Du        
   8848 ****        22.0000 -10.2500  -3.0000 Du        
   8849 ****        22.0000 -10.0000  -4.2500 Du        
   8850 ****        22.0000 -10.0000  -4.0000 Du        
   8851 ****        22.0000 -10.0000  -3.7500 Du        
   8852 ****        22.0000  -7.5000   1.2500 Du        
   8853 ****        22.0000  -7.5000   1.5000 Du        
   8854 ****        22.0000  -7.5000   1.7500 Du        
   8855 ****        22.0000  -7.5000   2.0000 Du        
   8856 ****        22.0000  -7.5000   2.2500 Du        
   8857 ****        22.0000  -7.5000   2.7500 Du        
   8858 ****        22.0000  -7.5000   7.5000 Du        
   8859 ****        22.0000  -7.5000   7.7500 Du        
   8860 ****        22.0000  -7.5000   8.0000 Du        
   8861 ****        22.0000  -7.5000   8.2500 Du        
   8862 ****        22.0000  -7.5000   8.7500 Du        
   8863 ****        22.0000  -7.2500   1.7500 Du        
   8864 ****        22.0000  -7.2500   2.0000 Du        
   8865 ****        22.0000  -7.2500   2.2500 Du        
   8866 ****        22.0000  -7.2500   2.5000 Du        
   8867 ****        22.0000  -7.2500   2.7500 Du        
   8868 ****        22.0000  -7.2500   3.0000 Du        
   8869 ****        22.0000  -7.2500   7.0000 Du        
   8870 ****        22.0000  -7.2500   7.2500 Du        
   8871 ****        22.0000  -7.2500   7.5000 Du        
   8872 ****        22.0000  -7.2500   7.7500 Du        
   8873 ****        22.0000  -7.2500   8.0000 Du        
   8874 ****        22.0000  -7.2500   8.2500 Du        
   8875 ****        22.0000  -7.2500   8.5000 Du        
   8876 ****        22.0000  -7.2500   8.7500 Du        
   8877 ****        22.0000  -7.2500   9.0000 Du        
   8878 ****        22.0000  -7.2500   9.2500 Du        
   8879 ****        22.0000  -7.2500   9.5000 Du        
   8880 ****        22.0000  -7.2500   9.7500 Du        
   8881 ****        22.0000  -7.2500  10.0000 Du        
   8882 ****        22.0000  -7.2500  10.2500 Du        
   8883 ****        22.0000  -7.0000   2.2500 Du        
   8884 ****        22.0000  -7.0000   7.0000 Du        
   8885 ****        22.0000  -7.0000   7.2500 Du        
   8886 ****        22.0000  -7.0000   7.5000 Du        
   8887 ****        22.0000  -7.0000   7.7500 Du        
   8888 ****        22.0000  -7.0000   8.0000 Du        
   8889 ****        22.0000  -7.0000   8.2500 Du        
   8890 ****        22.0000  -7.0000   8.5000 Du        
   8891 ****        22.0000  -7.0000   8.7500 Du        
   8892 ****        22.0000  -7.0000   9.0000 Du        
   8893 ****        22.0000  -7.0000   9.2500 Du        
   8894 ****        22.0000  -7.0000   9.5000 Du        
   8895 ****        22.0000  -7.0000   9.7500 Du        
   8896 ****        22.0000  -6.7500   7.5000 Du        
   8897 ****        22.0000  -6.7500   7.7500 Du        
   8898 ****        22.0000  -6.7500   8.0000 Du        
   8899 ****        22.0000  -6.7500   8.2500 Du        
   8900 ****        22.0000  -6.7500   8.5000 Du        
   8901 ****        22.0000  -6.7500   8.7500 Du        
   8902 ****        22.0000  -6.7500   9.0000 Du        
   8903 ****        22.0000  -6.7500   9.2500 Du        
   8904 ****        22.0000  -6.5000   7.7500 Du        
   8905 ****        22.0000  -6.5000   8.0000 Du        
   8906 ****        22.0000  -6.5000   8.2500 Du        
   8907 ****        22.0000  -6.5000   8.5000 Du        
   8908 ****        22.0000  -6.5000   8.7500 Du        
   8909 ****        22.0000  -6.5000   9.0000 Du        
   8910 ****        22.0000  -6.2500   8.0000 Du        
   8911 ****        22.0000  -6.2500   8.2500 Du        
   8912 ****        22.0000  -6.2500   8.5000 Du        
   8913 ****        22.0000  -6.2500   8.7500 Du        
   8914 ****        22.0000  -4.0000  14.7500 Du        
   8915 ****        22.0000  -4.0000  15.0000 Du        
   8916 ****        22.0000  -4.0000  15.2500 Du        
   8917 ****        22.0000  -3.7500  14.5000 Du        
   8918 ****        22.0000  -3.7500  14.7500 Du        
   8919 ****        22.0000  -3.7500  15.0000 Du        
   8920 ****        22.0000  -3.7500  15.2500 Du        
   8921 ****        22.0000  -3.5000  14.5000 Du        
   8922 ****        22.0000  -3.5000  14.7500 Du        
   8923 ****        22.0000  -3.5000  15.0000 Du        
   8924 ****        22.0000  -3.5000  15.2500 Du        
   8925 ****        22.0000  -3.5000  15.5000 Du        
   8926 ****        22.0000  -3.2500  14.5000 Du        
   8927 ****        22.0000  -3.2500  14.7500 Du        
   8928 ****        22.0000  -3.2500  15.0000 Du        
   8929 ****        22.0000  -3.2500  15.2500 Du        
   8930 ****        22.0000  -3.2500  15.5000 Du        
   8931 ****        22.0000  -3.2500  15.7500 Du        
   8932 ****        22.2500 -14.2500  -1.2500 Du        
   8933 ****        22.2500 -14.2500  -1.0000 Du        
   8934 ****        22.2500 -14.2500  -0.7500 Du        
   8935 ****        22.2500 -14.2500  -0.5000 Du        
   8936 ****        22.2500 -14.0000  -1.5000 Du        
   8937 ****        22.2500 -14.0000  -1.2500 Du        
   8938 ****        22.2500 -14.0000  -1.0000 Du        
   8939 ****        22.2500 -14.0000  -0.7500 Du        
   8940 ****        22.2500 -14.0000  -0.5000 Du        
   8941 ****        22.2500 -14.0000  -0.2500 Du        
   8942 ****        22.2500 -13.7500  -1.7500 Du        
   8943 ****        22.2500 -13.7500  -1.5000 Du        
   8944 ****        22.2500 -13.7500  -1.2500 Du        
   8945 ****        22.2500 -13.7500  -1.0000 Du        
   8946 ****        22.2500 -13.7500  -0.7500 Du        
   8947 ****        22.2500 -13.7500  -0.5000 Du        
   8948 ****        22.2500 -13.7500  -0.2500 Du        
   8949 ****        22.2500 -13.5000  -2.0000 Du        
   8950 ****        22.2500 -13.5000  -1.7500 Du        
   8951 ****        22.2500 -13.5000  -1.5000 Du        
   8952 ****        22.2500 -13.5000  -1.2500 Du        
   8953 ****        22.2500 -13.5000  -1.0000 Du        
   8954 ****        22.2500 -13.5000  -0.7500 Du        
   8955 ****        22.2500 -13.5000  -0.5000 Du        
   8956 ****        22.2500 -13.5000  -0.2500 Du        
   8957 ****        22.2500 -13.2500  -2.2500 Du        
   8958 ****        22.2500 -13.2500  -2.0000 Du        
   8959 ****        22.2500 -13.2500  -1.7500 Du        
   8960 ****        22.2500 -13.2500  -1.5000 Du        
   8961 ****        22.2500 -13.2500  -1.2500 Du        
   8962 ****        22.2500 -13.2500  -1.0000 Du        
   8963 ****        22.2500 -13.2500  -0.7500 Du        
   8964 ****        22.2500 -13.2500  -0.5000 Du        
   8965 ****        22.2500 -13.0000  -2.5000 Du        
   8966 ****        22.2500 -13.0000  -2.2500 Du        
   8967 ****        22.2500 -13.0000  -2.0000 Du        
   8968 ****        22.2500 -13.0000  -1.7500 Du        
   8969 ****        22.2500 -13.0000  -1.5000 Du        
   8970 ****        22.2500 -13.0000  -1.2500 Du        
   8971 ****        22.2500 -13.0000  -1.0000 Du        
   8972 ****        22.2500 -13.0000  -0.7500 Du        
   8973 ****        22.2500 -13.0000  -0.5000 Du        
   8974 ****        22.2500 -12.7500  -2.7500 Du        
   8975 ****        22.2500 -12.7500  -2.5000 Du        
   8976 ****        22.2500 -12.7500  -2.2500 Du        
   8977 ****        22.2500 -12.7500  -2.0000 Du        
   8978 ****        22.2500 -12.7500  -1.7500 Du        
   8979 ****        22.2500 -12.7500  -1.5000 Du        
   8980 ****        22.2500 -12.7500  -1.2500 Du        
   8981 ****        22.2500 -12.7500  -1.0000 Du        
   8982 ****        22.2500 -12.7500  -0.7500 Du        
   8983 ****        22.2500 -12.5000  -2.7500 Du        
   8984 ****        22.2500 -12.5000  -2.5000 Du        
   8985 ****        22.2500 -12.5000  -2.2500 Du        
   8986 ****        22.2500 -12.5000  -2.0000 Du        
   8987 ****        22.2500 -12.5000  -1.7500 Du        
   8988 ****        22.2500 -12.5000  -1.5000 Du        
   8989 ****        22.2500 -12.5000  -1.2500 Du        
   8990 ****        22.2500 -12.5000  -1.0000 Du        
   8991 ****        22.2500 -12.5000  -0.7500 Du        
   8992 ****        22.2500 -12.2500  -3.0000 Du        
   8993 ****        22.2500 -12.2500  -2.7500 Du        
   8994 ****        22.2500 -12.2500  -2.5000 Du        
   8995 ****        22.2500 -12.2500  -2.2500 Du        
   8996 ****        22.2500 -12.2500  -2.0000 Du        
   8997 ****        22.2500 -12.2500  -1.7500 Du        
   8998 ****        22.2500 -12.2500  -1.5000 Du        
   8999 ****        22.2500 -12.2500  -1.2500 Du        
   9000 ****        22.2500 -12.2500  -1.0000 Du        
   9001 ****        22.2500 -12.2500  -0.7500 Du        
   9002 ****        22.2500 -12.0000  -3.0000 Du        
   9003 ****        22.2500 -12.0000  -2.7500 Du        
   9004 ****        22.2500 -12.0000  -2.5000 Du        
   9005 ****        22.2500 -12.0000  -2.2500 Du        
   9006 ****        22.2500 -12.0000  -2.0000 Du        
   9007 ****        22.2500 -12.0000  -1.7500 Du        
   9008 ****        22.2500 -12.0000  -1.5000 Du        
   9009 ****        22.2500 -12.0000  -1.2500 Du        
   9010 ****        22.2500 -12.0000  -1.0000 Du        
   9011 ****        22.2500 -12.0000  -0.7500 Du        
   9012 ****        22.2500 -11.7500  -2.7500 Du        
   9013 ****        22.2500 -11.7500  -2.5000 Du        
   9014 ****        22.2500 -11.7500  -2.2500 Du        
   9015 ****        22.2500 -11.7500  -2.0000 Du        
   9016 ****        22.2500 -11.7500  -1.7500 Du        
   9017 ****        22.2500 -11.7500  -1.5000 Du        
   9018 ****        22.2500 -11.7500  -1.2500 Du        
   9019 ****        22.2500 -11.7500  -1.0000 Du        
   9020 ****        22.2500 -11.7500  -0.7500 Du        
   9021 ****        22.2500 -11.5000  -2.7500 Du        
   9022 ****        22.2500 -11.5000  -2.5000 Du        
   9023 ****        22.2500 -11.5000  -2.2500 Du        
   9024 ****        22.2500 -11.5000  -2.0000 Du        
   9025 ****        22.2500 -11.5000  -1.7500 Du        
   9026 ****        22.2500 -11.5000  -1.5000 Du        
   9027 ****        22.2500 -11.5000  -1.2500 Du        
   9028 ****        22.2500 -11.5000  -1.0000 Du        
   9029 ****        22.2500 -11.5000  -0.7500 Du        
   9030 ****        22.2500 -11.2500  -2.7500 Du        
   9031 ****        22.2500 -11.2500  -2.5000 Du        
   9032 ****        22.2500 -11.2500  -2.2500 Du        
   9033 ****        22.2500 -11.2500  -2.0000 Du        
   9034 ****        22.2500 -11.2500  -1.7500 Du        
   9035 ****        22.2500 -11.2500  -1.5000 Du        
   9036 ****        22.2500 -11.2500  -1.2500 Du        
   9037 ****        22.2500 -11.2500  -1.0000 Du        
   9038 ****        22.2500 -11.2500  -0.7500 Du        
   9039 ****        22.2500 -11.0000  -3.0000 Du        
   9040 ****        22.2500 -11.0000  -2.7500 Du        
   9041 ****        22.2500 -11.0000  -2.5000 Du        
   9042 ****        22.2500 -11.0000  -2.2500 Du        
   9043 ****        22.2500 -11.0000  -2.0000 Du        
   9044 ****        22.2500 -11.0000  -1.7500 Du        
   9045 ****        22.2500 -11.0000  -1.5000 Du        
   9046 ****        22.2500 -11.0000  -1.2500 Du        
   9047 ****        22.2500 -11.0000  -1.0000 Du        
   9048 ****        22.2500 -11.0000  -0.7500 Du        
   9049 ****        22.2500 -10.7500  -4.0000 Du        
   9050 ****        22.2500 -10.7500  -3.5000 Du        
   9051 ****        22.2500 -10.7500  -3.2500 Du        
   9052 ****        22.2500 -10.7500  -3.0000 Du        
   9053 ****        22.2500 -10.7500  -2.7500 Du        
   9054 ****        22.2500 -10.7500  -2.2500 Du        
   9055 ****        22.2500 -10.7500  -2.0000 Du        
   9056 ****        22.2500 -10.7500  -1.7500 Du        
   9057 ****        22.2500 -10.7500  -1.5000 Du        
   9058 ****        22.2500 -10.7500  -1.2500 Du        
   9059 ****        22.2500 -10.7500  -1.0000 Du        
   9060 ****        22.2500 -10.7500  -0.7500 Du        
   9061 ****        22.2500 -10.5000  -4.2500 Du        
   9062 ****        22.2500 -10.5000  -4.0000 Du        
   9063 ****        22.2500 -10.5000  -3.7500 Du        
   9064 ****        22.2500 -10.2500  -4.2500 Du        
   9065 ****        22.2500 -10.2500  -4.0000 Du        
   9066 ****        22.2500 -10.2500  -3.7500 Du        
   9067 ****        22.2500  -9.0000   5.7500 Du        
   9068 ****        22.2500  -7.5000   1.7500 Du        
   9069 ****        22.2500  -7.5000   2.0000 Du        
   9070 ****        22.2500  -7.5000   2.2500 Du        
   9071 ****        22.2500  -7.5000   2.7500 Du        
   9072 ****        22.2500  -7.5000   7.5000 Du        
   9073 ****        22.2500  -7.5000   7.7500 Du        
   9074 ****        22.2500  -7.5000   8.0000 Du        
   9075 ****        22.2500  -7.5000   9.5000 Du        
   9076 ****        22.2500  -7.5000   9.7500 Du        
   9077 ****        22.2500  -7.2500   2.0000 Du        
   9078 ****        22.2500  -7.2500   2.2500 Du        
   9079 ****        22.2500  -7.2500   2.5000 Du        
   9080 ****        22.2500  -7.2500   2.7500 Du        
   9081 ****        22.2500  -7.2500   7.0000 Du        
   9082 ****        22.2500  -7.2500   7.2500 Du        
   9083 ****        22.2500  -7.2500   7.5000 Du        
   9084 ****        22.2500  -7.2500   7.7500 Du        
   9085 ****        22.2500  -7.2500   8.0000 Du        
   9086 ****        22.2500  -7.2500   8.2500 Du        
   9087 ****        22.2500  -7.2500   8.5000 Du        
   9088 ****        22.2500  -7.2500   8.7500 Du        
   9089 ****        22.2500  -7.2500   9.0000 Du        
   9090 ****        22.2500  -7.2500   9.2500 Du        
   9091 ****        22.2500  -7.2500   9.5000 Du        
   9092 ****        22.2500  -7.2500   9.7500 Du        
   9093 ****        22.2500  -7.2500  10.0000 Du        
   9094 ****        22.2500  -7.2500  10.2500 Du        
   9095 ****        22.2500  -7.0000   7.2500 Du        
   9096 ****        22.2500  -7.0000   7.5000 Du        
   9097 ****        22.2500  -7.0000   7.7500 Du        
   9098 ****        22.2500  -7.0000   8.0000 Du        
   9099 ****        22.2500  -7.0000   8.2500 Du        
   9100 ****        22.2500  -7.0000   8.5000 Du        
   9101 ****        22.2500  -7.0000   8.7500 Du        
   9102 ****        22.2500  -7.0000   9.0000 Du        
   9103 ****        22.2500  -7.0000   9.2500 Du        
   9104 ****        22.2500  -7.0000   9.5000 Du        
   9105 ****        22.2500  -7.0000   9.7500 Du        
   9106 ****        22.2500  -7.0000  10.0000 Du        
   9107 ****        22.2500  -6.7500   8.0000 Du        
   9108 ****        22.2500  -6.7500   8.2500 Du        
   9109 ****        22.2500  -6.7500   8.5000 Du        
   9110 ****        22.2500  -6.7500   8.7500 Du        
   9111 ****        22.2500  -6.7500   9.0000 Du        
   9112 ****        22.2500  -6.7500   9.2500 Du        
   9113 ****        22.2500  -6.5000   8.2500 Du        
   9114 ****        22.2500  -6.5000   8.5000 Du        
   9115 ****        22.2500  -6.5000   8.7500 Du        
   9116 ****        22.2500  -6.5000   9.0000 Du        
   9117 ****        22.2500  -4.2500  14.7500 Du        
   9118 ****        22.2500  -4.2500  15.0000 Du        
   9119 ****        22.2500  -4.0000  14.5000 Du        
   9120 ****        22.2500  -4.0000  14.7500 Du        
   9121 ****        22.2500  -4.0000  15.0000 Du        
   9122 ****        22.2500  -4.0000  15.2500 Du        
   9123 ****        22.2500  -3.7500  14.5000 Du        
   9124 ****        22.2500  -3.7500  14.7500 Du        
   9125 ****        22.2500  -3.7500  15.0000 Du        
   9126 ****        22.2500  -3.7500  15.2500 Du        
   9127 ****        22.2500  -3.5000  14.5000 Du        
   9128 ****        22.2500  -3.5000  14.7500 Du        
   9129 ****        22.2500  -3.5000  15.0000 Du        
   9130 ****        22.2500  -3.5000  15.2500 Du        
   9131 ****        22.2500  -3.5000  15.5000 Du        
   9132 ****        22.2500  -3.5000  15.7500 Du        
   9133 ****        22.2500  -3.2500  14.7500 Du        
   9134 ****        22.2500  -3.2500  15.0000 Du        
   9135 ****        22.2500  -3.2500  15.2500 Du        
   9136 ****        22.2500  -3.2500  15.5000 Du        
   9137 ****        22.2500  -3.2500  15.7500 Du        
   9138 ****        22.2500  -3.2500  16.0000 Du        
   9139 ****        22.2500  -3.0000  15.7500 Du        
   9140 ****        22.2500  -3.0000  16.0000 Du        
   9141 ****        22.2500  -3.0000  16.2500 Du        
   9142 ****        22.5000 -14.5000  -1.0000 Du        
   9143 ****        22.5000 -14.5000  -0.7500 Du        
   9144 ****        22.5000 -14.2500  -1.2500 Du        
   9145 ****        22.5000 -14.2500  -1.0000 Du        
   9146 ****        22.5000 -14.2500  -0.7500 Du        
   9147 ****        22.5000 -14.2500  -0.5000 Du        
   9148 ****        22.5000 -14.2500  -0.2500 Du        
   9149 ****        22.5000 -14.0000  -1.5000 Du        
   9150 ****        22.5000 -14.0000  -1.2500 Du        
   9151 ****        22.5000 -14.0000  -1.0000 Du        
   9152 ****        22.5000 -14.0000  -0.7500 Du        
   9153 ****        22.5000 -14.0000  -0.5000 Du        
   9154 ****        22.5000 -14.0000  -0.2500 Du        
   9155 ****        22.5000 -14.0000   0.0000 Du        
   9156 ****        22.5000 -14.0000   0.2500 Du        
   9157 ****        22.5000 -13.7500  -1.5000 Du        
   9158 ****        22.5000 -13.7500  -1.2500 Du        
   9159 ****        22.5000 -13.7500  -1.0000 Du        
   9160 ****        22.5000 -13.7500  -0.7500 Du        
   9161 ****        22.5000 -13.7500  -0.5000 Du        
   9162 ****        22.5000 -13.7500  -0.2500 Du        
   9163 ****        22.5000 -13.7500   0.0000 Du        
   9164 ****        22.5000 -13.7500   0.2500 Du        
   9165 ****        22.5000 -13.5000  -1.7500 Du        
   9166 ****        22.5000 -13.5000  -1.5000 Du        
   9167 ****        22.5000 -13.5000  -1.2500 Du        
   9168 ****        22.5000 -13.5000  -1.0000 Du        
   9169 ****        22.5000 -13.5000  -0.7500 Du        
   9170 ****        22.5000 -13.5000  -0.5000 Du        
   9171 ****        22.5000 -13.5000  -0.2500 Du        
   9172 ****        22.5000 -13.5000   0.0000 Du        
   9173 ****        22.5000 -13.2500  -2.0000 Du        
   9174 ****        22.5000 -13.2500  -1.7500 Du        
   9175 ****        22.5000 -13.2500  -1.5000 Du        
   9176 ****        22.5000 -13.2500  -1.2500 Du        
   9177 ****        22.5000 -13.2500  -1.0000 Du        
   9178 ****        22.5000 -13.2500  -0.7500 Du        
   9179 ****        22.5000 -13.2500  -0.5000 Du        
   9180 ****        22.5000 -13.2500  -0.2500 Du        
   9181 ****        22.5000 -13.2500   0.0000 Du        
   9182 ****        22.5000 -13.0000  -2.2500 Du        
   9183 ****        22.5000 -13.0000  -2.0000 Du        
   9184 ****        22.5000 -13.0000  -1.7500 Du        
   9185 ****        22.5000 -13.0000  -1.5000 Du        
   9186 ****        22.5000 -13.0000  -1.2500 Du        
   9187 ****        22.5000 -13.0000  -1.0000 Du        
   9188 ****        22.5000 -13.0000  -0.7500 Du        
   9189 ****        22.5000 -13.0000  -0.5000 Du        
   9190 ****        22.5000 -13.0000  -0.2500 Du        
   9191 ****        22.5000 -12.7500  -2.5000 Du        
   9192 ****        22.5000 -12.7500  -2.2500 Du        
   9193 ****        22.5000 -12.7500  -2.0000 Du        
   9194 ****        22.5000 -12.7500  -1.7500 Du        
   9195 ****        22.5000 -12.7500  -1.5000 Du        
   9196 ****        22.5000 -12.7500  -1.2500 Du        
   9197 ****        22.5000 -12.7500  -1.0000 Du        
   9198 ****        22.5000 -12.7500  -0.7500 Du        
   9199 ****        22.5000 -12.7500  -0.5000 Du        
   9200 ****        22.5000 -12.7500  -0.2500 Du        
   9201 ****        22.5000 -12.5000  -2.5000 Du        
   9202 ****        22.5000 -12.5000  -2.2500 Du        
   9203 ****        22.5000 -12.5000  -2.0000 Du        
   9204 ****        22.5000 -12.5000  -1.7500 Du        
   9205 ****        22.5000 -12.5000  -1.5000 Du        
   9206 ****        22.5000 -12.5000  -1.2500 Du        
   9207 ****        22.5000 -12.5000  -1.0000 Du        
   9208 ****        22.5000 -12.5000  -0.7500 Du        
   9209 ****        22.5000 -12.5000  -0.5000 Du        
   9210 ****        22.5000 -12.2500  -2.5000 Du        
   9211 ****        22.5000 -12.2500  -2.2500 Du        
   9212 ****        22.5000 -12.2500  -2.0000 Du        
   9213 ****        22.5000 -12.2500  -1.7500 Du        
   9214 ****        22.5000 -12.2500  -1.5000 Du        
   9215 ****        22.5000 -12.2500  -1.2500 Du        
   9216 ****        22.5000 -12.2500  -1.0000 Du        
   9217 ****        22.5000 -12.2500  -0.7500 Du        
   9218 ****        22.5000 -12.2500  -0.5000 Du        
   9219 ****        22.5000 -12.0000  -2.2500 Du        
   9220 ****        22.5000 -12.0000  -2.0000 Du        
   9221 ****        22.5000 -12.0000  -1.7500 Du        
   9222 ****        22.5000 -12.0000  -1.5000 Du        
   9223 ****        22.5000 -12.0000  -1.2500 Du        
   9224 ****        22.5000 -12.0000  -1.0000 Du        
   9225 ****        22.5000 -12.0000  -0.7500 Du        
   9226 ****        22.5000 -12.0000  -0.5000 Du        
   9227 ****        22.5000 -11.7500  -2.2500 Du        
   9228 ****        22.5000 -11.7500  -2.0000 Du        
   9229 ****        22.5000 -11.7500  -1.7500 Du        
   9230 ****        22.5000 -11.7500  -1.5000 Du        
   9231 ****        22.5000 -11.7500  -1.2500 Du        
   9232 ****        22.5000 -11.7500  -1.0000 Du        
   9233 ****        22.5000 -11.7500  -0.7500 Du        
   9234 ****        22.5000 -11.7500  -0.5000 Du        
   9235 ****        22.5000 -11.5000  -2.0000 Du        
   9236 ****        22.5000 -11.5000  -1.7500 Du        
   9237 ****        22.5000 -11.5000  -1.5000 Du        
   9238 ****        22.5000 -11.5000  -1.2500 Du        
   9239 ****        22.5000 -11.5000  -1.0000 Du        
   9240 ****        22.5000 -11.5000  -0.7500 Du        
   9241 ****        22.5000 -11.2500  -2.0000 Du        
   9242 ****        22.5000 -11.2500  -1.7500 Du        
   9243 ****        22.5000 -11.2500  -1.5000 Du        
   9244 ****        22.5000 -11.2500  -1.2500 Du        
   9245 ****        22.5000 -11.2500  -1.0000 Du        
   9246 ****        22.5000 -11.2500  -0.7500 Du        
   9247 ****        22.5000 -11.0000  -1.7500 Du        
   9248 ****        22.5000 -11.0000  -1.5000 Du        
   9249 ****        22.5000 -11.0000  -1.2500 Du        
   9250 ****        22.5000 -11.0000  -1.0000 Du        
   9251 ****        22.5000 -11.0000  -0.7500 Du        
   9252 ****        22.5000 -11.0000  -0.5000 Du        
   9253 ****        22.5000 -10.7500  -1.2500 Du        
   9254 ****        22.5000 -10.7500  -1.0000 Du        
   9255 ****        22.5000 -10.7500  -0.7500 Du        
   9256 ****        22.5000  -9.0000   5.2500 Du        
   9257 ****        22.5000  -9.0000   5.5000 Du        
   9258 ****        22.5000  -9.0000   5.7500 Du        
   9259 ****        22.5000  -9.0000   6.0000 Du        
   9260 ****        22.5000  -8.7500   5.2500 Du        
   9261 ****        22.5000  -8.7500   5.5000 Du        
   9262 ****        22.5000  -8.7500   5.7500 Du        
   9263 ****        22.5000  -8.7500   6.0000 Du        
   9264 ****        22.5000  -8.0000   6.7500 Du        
   9265 ****        22.5000  -7.7500   3.0000 Du        
   9266 ****        22.5000  -7.5000   9.7500 Du        
   9267 ****        22.5000  -7.5000  10.0000 Du        
   9268 ****        22.5000  -7.5000  10.2500 Du        
   9269 ****        22.5000  -7.5000  10.5000 Du        
   9270 ****        22.5000  -7.2500   2.5000 Du        
   9271 ****        22.5000  -7.2500   2.7500 Du        
   9272 ****        22.5000  -7.2500   8.5000 Du        
   9273 ****        22.5000  -7.2500   8.7500 Du        
   9274 ****        22.5000  -7.2500   9.0000 Du        
   9275 ****        22.5000  -7.2500   9.2500 Du        
   9276 ****        22.5000  -7.2500   9.5000 Du        
   9277 ****        22.5000  -7.2500   9.7500 Du        
   9278 ****        22.5000  -7.2500  10.0000 Du        
   9279 ****        22.5000  -7.2500  10.2500 Du        
   9280 ****        22.5000  -7.2500  10.5000 Du        
   9281 ****        22.5000  -7.0000   8.7500 Du        
   9282 ****        22.5000  -7.0000   9.0000 Du        
   9283 ****        22.5000  -7.0000   9.2500 Du        
   9284 ****        22.5000  -7.0000   9.5000 Du        
   9285 ****        22.5000  -7.0000   9.7500 Du        
   9286 ****        22.5000  -7.0000  10.0000 Du        
   9287 ****        22.5000  -7.0000  10.2500 Du        
   9288 ****        22.5000  -7.0000  10.5000 Du        
   9289 ****        22.5000  -6.7500   9.0000 Du        
   9290 ****        22.5000  -6.7500   9.2500 Du        
   9291 ****        22.5000  -6.7500   9.5000 Du        
   9292 ****        22.5000  -6.7500   9.7500 Du        
   9293 ****        22.5000  -6.7500  10.0000 Du        
   9294 ****        22.5000  -4.5000  14.7500 Du        
   9295 ****        22.5000  -4.2500  14.5000 Du        
   9296 ****        22.5000  -4.2500  14.7500 Du        
   9297 ****        22.5000  -4.2500  15.0000 Du        
   9298 ****        22.5000  -4.2500  15.2500 Du        
   9299 ****        22.5000  -4.0000  14.5000 Du        
   9300 ****        22.5000  -4.0000  14.7500 Du        
   9301 ****        22.5000  -4.0000  15.0000 Du        
   9302 ****        22.5000  -4.0000  15.2500 Du        
   9303 ****        22.5000  -3.7500  14.2500 Du        
   9304 ****        22.5000  -3.7500  14.5000 Du        
   9305 ****        22.5000  -3.7500  14.7500 Du        
   9306 ****        22.5000  -3.7500  15.0000 Du        
   9307 ****        22.5000  -3.7500  15.2500 Du        
   9308 ****        22.5000  -3.7500  15.5000 Du        
   9309 ****        22.5000  -3.5000  14.5000 Du        
   9310 ****        22.5000  -3.5000  14.7500 Du        
   9311 ****        22.5000  -3.5000  15.0000 Du        
   9312 ****        22.5000  -3.5000  15.2500 Du        
   9313 ****        22.5000  -3.5000  15.5000 Du        
   9314 ****        22.5000  -3.5000  15.7500 Du        
   9315 ****        22.5000  -3.5000  16.0000 Du        
   9316 ****        22.5000  -3.2500  14.7500 Du        
   9317 ****        22.5000  -3.2500  15.0000 Du        
   9318 ****        22.5000  -3.2500  15.2500 Du        
   9319 ****        22.5000  -3.2500  15.5000 Du        
   9320 ****        22.5000  -3.2500  15.7500 Du        
   9321 ****        22.5000  -3.2500  16.0000 Du        
   9322 ****        22.5000  -3.2500  16.2500 Du        
   9323 ****        22.5000  -3.0000  15.2500 Du        
   9324 ****        22.5000  -3.0000  15.5000 Du        
   9325 ****        22.5000  -3.0000  15.7500 Du        
   9326 ****        22.5000  -3.0000  16.0000 Du        
   9327 ****        22.5000  -3.0000  16.2500 Du        
   9328 ****        22.5000  -2.7500  16.0000 Du        
   9329 ****        22.5000  -2.7500  16.2500 Du        
   9330 ****        22.5000  -2.5000  17.0000 Du        
   9331 ****        22.7500 -14.5000  -0.7500 Du        
   9332 ****        22.7500 -14.5000  -0.5000 Du        
   9333 ****        22.7500 -14.2500  -1.0000 Du        
   9334 ****        22.7500 -14.2500  -0.7500 Du        
   9335 ****        22.7500 -14.2500  -0.5000 Du        
   9336 ****        22.7500 -14.2500  -0.2500 Du        
   9337 ****        22.7500 -14.2500   0.0000 Du        
   9338 ****        22.7500 -14.0000  -1.2500 Du        
   9339 ****        22.7500 -14.0000  -1.0000 Du        
   9340 ****        22.7500 -14.0000  -0.7500 Du        
   9341 ****        22.7500 -14.0000  -0.5000 Du        
   9342 ****        22.7500 -14.0000  -0.2500 Du        
   9343 ****        22.7500 -14.0000   0.0000 Du        
   9344 ****        22.7500 -14.0000   0.2500 Du        
   9345 ****        22.7500 -13.7500  -1.5000 Du        
   9346 ****        22.7500 -13.7500  -1.2500 Du        
   9347 ****        22.7500 -13.7500  -1.0000 Du        
   9348 ****        22.7500 -13.7500  -0.7500 Du        
   9349 ****        22.7500 -13.7500  -0.5000 Du        
   9350 ****        22.7500 -13.7500  -0.2500 Du        
   9351 ****        22.7500 -13.7500   0.0000 Du        
   9352 ****        22.7500 -13.7500   0.2500 Du        
   9353 ****        22.7500 -13.7500   0.5000 Du        
   9354 ****        22.7500 -13.5000  -1.5000 Du        
   9355 ****        22.7500 -13.5000  -1.2500 Du        
   9356 ****        22.7500 -13.5000  -1.0000 Du        
   9357 ****        22.7500 -13.5000  -0.7500 Du        
   9358 ****        22.7500 -13.5000  -0.5000 Du        
   9359 ****        22.7500 -13.5000  -0.2500 Du        
   9360 ****        22.7500 -13.5000   0.0000 Du        
   9361 ****        22.7500 -13.5000   0.2500 Du        
   9362 ****        22.7500 -13.5000   0.5000 Du        
   9363 ****        22.7500 -13.2500  -1.7500 Du        
   9364 ****        22.7500 -13.2500  -1.5000 Du        
   9365 ****        22.7500 -13.2500  -1.2500 Du        
   9366 ****        22.7500 -13.2500  -1.0000 Du        
   9367 ****        22.7500 -13.2500  -0.7500 Du        
   9368 ****        22.7500 -13.2500  -0.5000 Du        
   9369 ****        22.7500 -13.2500  -0.2500 Du        
   9370 ****        22.7500 -13.2500   0.0000 Du        
   9371 ****        22.7500 -13.2500   0.2500 Du        
   9372 ****        22.7500 -13.2500   0.5000 Du        
   9373 ****        22.7500 -13.0000  -2.0000 Du        
   9374 ****        22.7500 -13.0000  -1.7500 Du        
   9375 ****        22.7500 -13.0000  -1.5000 Du        
   9376 ****        22.7500 -13.0000  -1.2500 Du        
   9377 ****        22.7500 -13.0000  -1.0000 Du        
   9378 ****        22.7500 -13.0000  -0.7500 Du        
   9379 ****        22.7500 -13.0000  -0.5000 Du        
   9380 ****        22.7500 -13.0000  -0.2500 Du        
   9381 ****        22.7500 -13.0000   0.0000 Du        
   9382 ****        22.7500 -13.0000   0.2500 Du        
   9383 ****        22.7500 -13.0000   0.5000 Du        
   9384 ****        22.7500 -12.7500  -2.2500 Du        
   9385 ****        22.7500 -12.7500  -2.0000 Du        
   9386 ****        22.7500 -12.7500  -1.7500 Du        
   9387 ****        22.7500 -12.7500  -1.5000 Du        
   9388 ****        22.7500 -12.7500  -1.2500 Du        
   9389 ****        22.7500 -12.7500  -1.0000 Du        
   9390 ****        22.7500 -12.7500  -0.7500 Du        
   9391 ****        22.7500 -12.7500  -0.5000 Du        
   9392 ****        22.7500 -12.7500  -0.2500 Du        
   9393 ****        22.7500 -12.7500   0.0000 Du        
   9394 ****        22.7500 -12.7500   0.2500 Du        
   9395 ****        22.7500 -12.5000  -2.2500 Du        
   9396 ****        22.7500 -12.5000  -2.0000 Du        
   9397 ****        22.7500 -12.5000  -1.7500 Du        
   9398 ****        22.7500 -12.5000  -1.5000 Du        
   9399 ****        22.7500 -12.5000  -1.2500 Du        
   9400 ****        22.7500 -12.5000  -1.0000 Du        
   9401 ****        22.7500 -12.5000  -0.7500 Du        
   9402 ****        22.7500 -12.5000  -0.5000 Du        
   9403 ****        22.7500 -12.5000  -0.2500 Du        
   9404 ****        22.7500 -12.5000   0.0000 Du        
   9405 ****        22.7500 -12.5000   0.2500 Du        
   9406 ****        22.7500 -12.2500  -2.0000 Du        
   9407 ****        22.7500 -12.2500  -1.7500 Du        
   9408 ****        22.7500 -12.2500  -1.5000 Du        
   9409 ****        22.7500 -12.2500  -1.2500 Du        
   9410 ****        22.7500 -12.2500  -1.0000 Du        
   9411 ****        22.7500 -12.2500  -0.7500 Du        
   9412 ****        22.7500 -12.2500  -0.5000 Du        
   9413 ****        22.7500 -12.2500  -0.2500 Du        
   9414 ****        22.7500 -12.2500   0.0000 Du        
   9415 ****        22.7500 -12.0000  -2.0000 Du        
   9416 ****        22.7500 -12.0000  -1.7500 Du        
   9417 ****        22.7500 -12.0000  -1.5000 Du        
   9418 ****        22.7500 -12.0000  -1.2500 Du        
   9419 ****        22.7500 -12.0000  -1.0000 Du        
   9420 ****        22.7500 -12.0000  -0.7500 Du        
   9421 ****        22.7500 -12.0000  -0.5000 Du        
   9422 ****        22.7500 -12.0000  -0.2500 Du        
   9423 ****        22.7500 -12.0000   0.0000 Du        
   9424 ****        22.7500 -12.0000   0.2500 Du        
   9425 ****        22.7500 -11.7500  -1.7500 Du        
   9426 ****        22.7500 -11.7500  -1.5000 Du        
   9427 ****        22.7500 -11.7500  -1.2500 Du        
   9428 ****        22.7500 -11.7500  -1.0000 Du        
   9429 ****        22.7500 -11.7500  -0.7500 Du        
   9430 ****        22.7500 -11.7500  -0.5000 Du        
   9431 ****        22.7500 -11.7500  -0.2500 Du        
   9432 ****        22.7500 -11.7500   0.0000 Du        
   9433 ****        22.7500 -11.7500   0.2500 Du        
   9434 ****        22.7500 -11.5000  -1.2500 Du        
   9435 ****        22.7500 -11.5000  -1.0000 Du        
   9436 ****        22.7500 -11.5000  -0.7500 Du        
   9437 ****        22.7500 -11.5000  -0.5000 Du        
   9438 ****        22.7500 -11.5000  -0.2500 Du        
   9439 ****        22.7500 -11.5000   0.0000 Du        
   9440 ****        22.7500 -11.2500  -1.2500 Du        
   9441 ****        22.7500 -11.2500  -1.0000 Du        
   9442 ****        22.7500 -11.2500  -0.7500 Du        
   9443 ****        22.7500 -11.2500  -0.5000 Du        
   9444 ****        22.7500 -11.2500  -0.2500 Du        
   9445 ****        22.7500 -11.2500   0.0000 Du        
   9446 ****        22.7500 -11.2500   0.2500 Du        
   9447 ****        22.7500 -11.0000  -1.2500 Du        
   9448 ****        22.7500 -11.0000  -1.0000 Du        
   9449 ****        22.7500 -11.0000  -0.7500 Du        
   9450 ****        22.7500 -11.0000  -0.5000 Du        
   9451 ****        22.7500 -11.0000  -0.2500 Du        
   9452 ****        22.7500 -11.0000   0.0000 Du        
   9453 ****        22.7500 -11.0000   0.2500 Du        
   9454 ****        22.7500 -10.7500  -1.2500 Du        
   9455 ****        22.7500 -10.7500  -1.0000 Du        
   9456 ****        22.7500 -10.7500  -0.7500 Du        
   9457 ****        22.7500 -10.7500  -0.2500 Du        
   9458 ****        22.7500 -10.7500   0.0000 Du        
   9459 ****        22.7500 -10.7500   0.2500 Du        
   9460 ****        22.7500  -9.2500   5.0000 Du        
   9461 ****        22.7500  -9.2500   5.2500 Du        
   9462 ****        22.7500  -9.2500   5.7500 Du        
   9463 ****        22.7500  -9.0000   4.7500 Du        
   9464 ****        22.7500  -9.0000   5.0000 Du        
   9465 ****        22.7500  -9.0000   5.2500 Du        
   9466 ****        22.7500  -9.0000   5.5000 Du        
   9467 ****        22.7500  -9.0000   5.7500 Du        
   9468 ****        22.7500  -9.0000   6.0000 Du        
   9469 ****        22.7500  -8.7500   5.0000 Du        
   9470 ****        22.7500  -8.7500   5.2500 Du        
   9471 ****        22.7500  -8.7500   5.5000 Du        
   9472 ****        22.7500  -8.7500   5.7500 Du        
   9473 ****        22.7500  -8.7500   6.0000 Du        
   9474 ****        22.7500  -8.2500   3.0000 Du        
   9475 ****        22.7500  -8.0000   3.0000 Du        
   9476 ****        22.7500  -8.0000   3.2500 Du        
   9477 ****        22.7500  -7.7500   2.7500 Du        
   9478 ****        22.7500  -7.7500   3.0000 Du        
   9479 ****        22.7500  -7.5000   9.7500 Du        
   9480 ****        22.7500  -7.5000  10.0000 Du        
   9481 ****        22.7500  -7.5000  10.2500 Du        
   9482 ****        22.7500  -7.5000  10.5000 Du        
   9483 ****        22.7500  -7.2500   9.2500 Du        
   9484 ****        22.7500  -7.2500   9.5000 Du        
   9485 ****        22.7500  -7.2500   9.7500 Du        
   9486 ****        22.7500  -7.2500  10.0000 Du        
   9487 ****        22.7500  -7.2500  10.2500 Du        
   9488 ****        22.7500  -7.2500  10.5000 Du        
   9489 ****        22.7500  -7.0000   9.2500 Du        
   9490 ****        22.7500  -7.0000   9.5000 Du        
   9491 ****        22.7500  -7.0000   9.7500 Du        
   9492 ****        22.7500  -7.0000  10.0000 Du        
   9493 ****        22.7500  -7.0000  10.2500 Du        
   9494 ****        22.7500  -7.0000  10.5000 Du        
   9495 ****        22.7500  -6.7500   9.7500 Du        
   9496 ****        22.7500  -6.7500  10.0000 Du        
   9497 ****        22.7500  -4.5000  14.5000 Du        
   9498 ****        22.7500  -4.5000  14.7500 Du        
   9499 ****        22.7500  -4.5000  15.0000 Du        
   9500 ****        22.7500  -4.5000  15.2500 Du        
   9501 ****        22.7500  -4.2500  14.5000 Du        
   9502 ****        22.7500  -4.2500  14.7500 Du        
   9503 ****        22.7500  -4.2500  15.0000 Du        
   9504 ****        22.7500  -4.2500  15.2500 Du        
   9505 ****        22.7500  -4.0000  14.2500 Du        
   9506 ****        22.7500  -4.0000  14.5000 Du        
   9507 ****        22.7500  -4.0000  14.7500 Du        
   9508 ****        22.7500  -4.0000  15.0000 Du        
   9509 ****        22.7500  -4.0000  15.2500 Du        
   9510 ****        22.7500  -4.0000  15.5000 Du        
   9511 ****        22.7500  -3.7500  14.5000 Du        
   9512 ****        22.7500  -3.7500  14.7500 Du        
   9513 ****        22.7500  -3.7500  15.0000 Du        
   9514 ****        22.7500  -3.7500  15.2500 Du        
   9515 ****        22.7500  -3.7500  15.5000 Du        
   9516 ****        22.7500  -3.7500  15.7500 Du        
   9517 ****        22.7500  -3.7500  16.0000 Du        
   9518 ****        22.7500  -3.5000  14.5000 Du        
   9519 ****        22.7500  -3.5000  14.7500 Du        
   9520 ****        22.7500  -3.5000  15.0000 Du        
   9521 ****        22.7500  -3.5000  15.2500 Du        
   9522 ****        22.7500  -3.5000  15.5000 Du        
   9523 ****        22.7500  -3.5000  15.7500 Du        
   9524 ****        22.7500  -3.5000  16.0000 Du        
   9525 ****        22.7500  -3.5000  16.2500 Du        
   9526 ****        22.7500  -3.2500  14.7500 Du        
   9527 ****        22.7500  -3.2500  15.0000 Du        
   9528 ****        22.7500  -3.2500  15.2500 Du        
   9529 ****        22.7500  -3.2500  15.5000 Du        
   9530 ****        22.7500  -3.2500  15.7500 Du        
   9531 ****        22.7500  -3.2500  16.0000 Du        
   9532 ****        22.7500  -3.2500  16.2500 Du        
   9533 ****        22.7500  -3.0000  15.2500 Du        
   9534 ****        22.7500  -3.0000  15.5000 Du        
   9535 ****        22.7500  -3.0000  15.7500 Du        
   9536 ****        22.7500  -3.0000  16.0000 Du        
   9537 ****        22.7500  -3.0000  16.2500 Du        
   9538 ****        22.7500  -3.0000  16.7500 Du        
   9539 ****        22.7500  -2.7500  15.7500 Du        
   9540 ****        22.7500  -2.7500  16.0000 Du        
   9541 ****        22.7500  -2.7500  16.2500 Du        
   9542 ****        22.7500  -2.7500  16.7500 Du        
   9543 ****        22.7500  -2.5000  16.2500 Du        
   9544 ****        22.7500  -2.5000  16.7500 Du        
   9545 ****        22.7500  -2.5000  17.0000 Du        
   9546 ****        23.0000 -14.5000  -0.7500 Du        
   9547 ****        23.0000 -14.5000  -0.5000 Du        
   9548 ****        23.0000 -14.5000  -0.2500 Du        
   9549 ****        23.0000 -14.2500  -1.0000 Du        
   9550 ****        23.0000 -14.2500  -0.7500 Du        
   9551 ****        23.0000 -14.2500  -0.5000 Du        
   9552 ****        23.0000 -14.2500  -0.2500 Du        
   9553 ****        23.0000 -14.2500   0.0000 Du        
   9554 ****        23.0000 -14.2500   0.2500 Du        
   9555 ****        23.0000 -14.0000  -1.2500 Du        
   9556 ****        23.0000 -14.0000  -1.0000 Du        
   9557 ****        23.0000 -14.0000  -0.7500 Du        
   9558 ****        23.0000 -14.0000  -0.5000 Du        
   9559 ****        23.0000 -14.0000  -0.2500 Du        
   9560 ****        23.0000 -14.0000   0.0000 Du        
   9561 ****        23.0000 -14.0000   0.2500 Du        
   9562 ****        23.0000 -14.0000   0.5000 Du        
   9563 ****        23.0000 -14.0000   0.7500 Du        
   9564 ****        23.0000 -13.7500  -1.2500 Du        
   9565 ****        23.0000 -13.7500  -1.0000 Du        
   9566 ****        23.0000 -13.7500  -0.7500 Du        
   9567 ****        23.0000 -13.7500  -0.5000 Du        
   9568 ****        23.0000 -13.7500  -0.2500 Du        
   9569 ****        23.0000 -13.7500   0.0000 Du        
   9570 ****        23.0000 -13.7500   0.2500 Du        
   9571 ****        23.0000 -13.7500   0.5000 Du        
   9572 ****        23.0000 -13.7500   0.7500 Du        
   9573 ****        23.0000 -13.7500   1.0000 Du        
   9574 ****        23.0000 -13.5000  -1.5000 Du        
   9575 ****        23.0000 -13.5000  -1.2500 Du        
   9576 ****        23.0000 -13.5000  -1.0000 Du        
   9577 ****        23.0000 -13.5000  -0.7500 Du        
   9578 ****        23.0000 -13.5000  -0.5000 Du        
   9579 ****        23.0000 -13.5000  -0.2500 Du        
   9580 ****        23.0000 -13.5000   0.0000 Du        
   9581 ****        23.0000 -13.5000   0.2500 Du        
   9582 ****        23.0000 -13.5000   0.5000 Du        
   9583 ****        23.0000 -13.5000   0.7500 Du        
   9584 ****        23.0000 -13.5000   1.0000 Du        
   9585 ****        23.0000 -13.2500  -1.7500 Du        
   9586 ****        23.0000 -13.2500  -1.5000 Du        
   9587 ****        23.0000 -13.2500  -1.2500 Du        
   9588 ****        23.0000 -13.2500  -1.0000 Du        
   9589 ****        23.0000 -13.2500  -0.7500 Du        
   9590 ****        23.0000 -13.2500  -0.5000 Du        
   9591 ****        23.0000 -13.2500  -0.2500 Du        
   9592 ****        23.0000 -13.2500   0.0000 Du        
   9593 ****        23.0000 -13.2500   0.2500 Du        
   9594 ****        23.0000 -13.2500   0.5000 Du        
   9595 ****        23.0000 -13.2500   0.7500 Du        
   9596 ****        23.0000 -13.2500   1.0000 Du        
   9597 ****        23.0000 -13.0000  -1.7500 Du        
   9598 ****        23.0000 -13.0000  -1.5000 Du        
   9599 ****        23.0000 -13.0000  -1.2500 Du        
   9600 ****        23.0000 -13.0000  -1.0000 Du        
   9601 ****        23.0000 -13.0000  -0.7500 Du        
   9602 ****        23.0000 -13.0000  -0.5000 Du        
   9603 ****        23.0000 -13.0000  -0.2500 Du        
   9604 ****        23.0000 -13.0000   0.0000 Du        
   9605 ****        23.0000 -13.0000   0.2500 Du        
   9606 ****        23.0000 -13.0000   0.5000 Du        
   9607 ****        23.0000 -13.0000   0.7500 Du        
   9608 ****        23.0000 -13.0000   1.0000 Du        
   9609 ****        23.0000 -12.7500  -1.7500 Du        
   9610 ****        23.0000 -12.7500  -1.5000 Du        
   9611 ****        23.0000 -12.7500  -1.2500 Du        
   9612 ****        23.0000 -12.7500  -1.0000 Du        
   9613 ****        23.0000 -12.7500  -0.7500 Du        
   9614 ****        23.0000 -12.7500  -0.5000 Du        
   9615 ****        23.0000 -12.7500  -0.2500 Du        
   9616 ****        23.0000 -12.7500   0.0000 Du        
   9617 ****        23.0000 -12.7500   0.2500 Du        
   9618 ****        23.0000 -12.7500   0.5000 Du        
   9619 ****        23.0000 -12.7500   0.7500 Du        
   9620 ****        23.0000 -12.7500   1.0000 Du        
   9621 ****        23.0000 -12.5000  -1.7500 Du        
   9622 ****        23.0000 -12.5000  -1.5000 Du        
   9623 ****        23.0000 -12.5000  -1.2500 Du        
   9624 ****        23.0000 -12.5000  -1.0000 Du        
   9625 ****        23.0000 -12.5000  -0.7500 Du        
   9626 ****        23.0000 -12.5000  -0.5000 Du        
   9627 ****        23.0000 -12.5000  -0.2500 Du        
   9628 ****        23.0000 -12.5000   0.0000 Du        
   9629 ****        23.0000 -12.5000   0.2500 Du        
   9630 ****        23.0000 -12.5000   0.5000 Du        
   9631 ****        23.0000 -12.5000   0.7500 Du        
   9632 ****        23.0000 -12.5000   1.0000 Du        
   9633 ****        23.0000 -12.2500  -1.5000 Du        
   9634 ****        23.0000 -12.2500  -1.2500 Du        
   9635 ****        23.0000 -12.2500  -1.0000 Du        
   9636 ****        23.0000 -12.2500  -0.7500 Du        
   9637 ****        23.0000 -12.2500  -0.5000 Du        
   9638 ****        23.0000 -12.2500  -0.2500 Du        
   9639 ****        23.0000 -12.2500   0.0000 Du        
   9640 ****        23.0000 -12.2500   0.2500 Du        
   9641 ****        23.0000 -12.2500   0.5000 Du        
   9642 ****        23.0000 -12.2500   0.7500 Du        
   9643 ****        23.0000 -12.2500   1.0000 Du        
   9644 ****        23.0000 -12.0000  -1.5000 Du        
   9645 ****        23.0000 -12.0000  -1.2500 Du        
   9646 ****        23.0000 -12.0000  -1.0000 Du        
   9647 ****        23.0000 -12.0000  -0.7500 Du        
   9648 ****        23.0000 -12.0000  -0.5000 Du        
   9649 ****        23.0000 -12.0000  -0.2500 Du        
   9650 ****        23.0000 -12.0000   0.0000 Du        
   9651 ****        23.0000 -12.0000   0.2500 Du        
   9652 ****        23.0000 -12.0000   0.5000 Du        
   9653 ****        23.0000 -12.0000   0.7500 Du        
   9654 ****        23.0000 -12.0000   1.0000 Du        
   9655 ****        23.0000 -12.0000   1.2500 Du        
   9656 ****        23.0000 -11.7500  -1.2500 Du        
   9657 ****        23.0000 -11.7500  -1.0000 Du        
   9658 ****        23.0000 -11.7500  -0.7500 Du        
   9659 ****        23.0000 -11.7500  -0.5000 Du        
   9660 ****        23.0000 -11.7500  -0.2500 Du        
   9661 ****        23.0000 -11.7500   0.0000 Du        
   9662 ****        23.0000 -11.7500   0.2500 Du        
   9663 ****        23.0000 -11.7500   0.5000 Du        
   9664 ****        23.0000 -11.7500   0.7500 Du        
   9665 ****        23.0000 -11.7500   1.0000 Du        
   9666 ****        23.0000 -11.7500   1.2500 Du        
   9667 ****        23.0000 -11.5000  -1.0000 Du        
   9668 ****        23.0000 -11.5000  -0.7500 Du        
   9669 ****        23.0000 -11.5000  -0.5000 Du        
   9670 ****        23.0000 -11.5000  -0.2500 Du        
   9671 ****        23.0000 -11.5000   0.0000 Du        
   9672 ****        23.0000 -11.5000   0.2500 Du        
   9673 ****        23.0000 -11.5000   0.5000 Du        
   9674 ****        23.0000 -11.5000   0.7500 Du        
   9675 ****        23.0000 -11.5000   1.0000 Du        
   9676 ****        23.0000 -11.5000   1.2500 Du        
   9677 ****        23.0000 -11.2500  -1.0000 Du        
   9678 ****        23.0000 -11.2500  -0.7500 Du        
   9679 ****        23.0000 -11.2500  -0.5000 Du        
   9680 ****        23.0000 -11.2500  -0.2500 Du        
   9681 ****        23.0000 -11.2500   0.0000 Du        
   9682 ****        23.0000 -11.2500   0.2500 Du        
   9683 ****        23.0000 -11.2500   0.5000 Du        
   9684 ****        23.0000 -11.2500   0.7500 Du        
   9685 ****        23.0000 -11.2500   1.0000 Du        
   9686 ****        23.0000 -11.2500   1.2500 Du        
   9687 ****        23.0000 -11.0000  -1.0000 Du        
   9688 ****        23.0000 -11.0000  -0.7500 Du        
   9689 ****        23.0000 -11.0000  -0.5000 Du        
   9690 ****        23.0000 -11.0000  -0.2500 Du        
   9691 ****        23.0000 -11.0000   0.0000 Du        
   9692 ****        23.0000 -11.0000   0.2500 Du        
   9693 ****        23.0000 -11.0000   0.5000 Du        
   9694 ****        23.0000 -11.0000   0.7500 Du        
   9695 ****        23.0000 -11.0000   1.0000 Du        
   9696 ****        23.0000 -11.0000   1.2500 Du        
   9697 ****        23.0000 -10.7500  -0.7500 Du        
   9698 ****        23.0000 -10.7500  -0.5000 Du        
   9699 ****        23.0000 -10.7500  -0.2500 Du        
   9700 ****        23.0000 -10.7500   0.0000 Du        
   9701 ****        23.0000 -10.7500   0.2500 Du        
   9702 ****        23.0000 -10.7500   0.5000 Du        
   9703 ****        23.0000 -10.7500   0.7500 Du        
   9704 ****        23.0000 -10.7500   1.0000 Du        
   9705 ****        23.0000 -10.7500   1.2500 Du        
   9706 ****        23.0000  -9.2500   4.7500 Du        
   9707 ****        23.0000  -9.2500   5.0000 Du        
   9708 ****        23.0000  -9.2500   5.2500 Du        
   9709 ****        23.0000  -9.2500   5.5000 Du        
   9710 ****        23.0000  -9.2500   5.7500 Du        
   9711 ****        23.0000  -9.0000   4.7500 Du        
   9712 ****        23.0000  -9.0000   5.0000 Du        
   9713 ****        23.0000  -9.0000   5.2500 Du        
   9714 ****        23.0000  -9.0000   5.5000 Du        
   9715 ****        23.0000  -9.0000   5.7500 Du        
   9716 ****        23.0000  -9.0000   6.0000 Du        
   9717 ****        23.0000  -8.7500   5.0000 Du        
   9718 ****        23.0000  -8.7500   5.2500 Du        
   9719 ****        23.0000  -8.7500   5.5000 Du        
   9720 ****        23.0000  -8.7500   5.7500 Du        
   9721 ****        23.0000  -8.2500   2.7500 Du        
   9722 ****        23.0000  -8.2500   3.0000 Du        
   9723 ****        23.0000  -8.0000   2.7500 Du        
   9724 ****        23.0000  -8.0000   3.0000 Du        
   9725 ****        23.0000  -8.0000   3.2500 Du        
   9726 ****        23.0000  -7.7500   2.7500 Du        
   9727 ****        23.0000  -7.7500   3.0000 Du        
   9728 ****        23.0000  -7.5000   9.7500 Du        
   9729 ****        23.0000  -7.5000  10.0000 Du        
   9730 ****        23.0000  -7.5000  10.2500 Du        
   9731 ****        23.0000  -7.5000  10.5000 Du        
   9732 ****        23.0000  -7.2500   9.7500 Du        
   9733 ****        23.0000  -7.2500  10.0000 Du        
   9734 ****        23.0000  -7.2500  10.2500 Du        
   9735 ****        23.0000  -7.2500  10.5000 Du        
   9736 ****        23.0000  -7.0000   9.7500 Du        
   9737 ****        23.0000  -7.0000  10.0000 Du        
   9738 ****        23.0000  -7.0000  10.2500 Du        
   9739 ****        23.0000  -7.0000  10.5000 Du        
   9740 ****        23.0000  -6.7500  10.0000 Du        
   9741 ****        23.0000  -6.7500  10.2500 Du        
   9742 ****        23.0000  -4.5000  14.5000 Du        
   9743 ****        23.0000  -4.5000  14.7500 Du        
   9744 ****        23.0000  -4.5000  15.0000 Du        
   9745 ****        23.0000  -4.5000  15.2500 Du        
   9746 ****        23.0000  -4.2500  14.5000 Du        
   9747 ****        23.0000  -4.2500  14.7500 Du        
   9748 ****        23.0000  -4.2500  15.0000 Du        
   9749 ****        23.0000  -4.2500  15.2500 Du        
   9750 ****        23.0000  -4.2500  15.5000 Du        
   9751 ****        23.0000  -4.0000  14.5000 Du        
   9752 ****        23.0000  -4.0000  14.7500 Du        
   9753 ****        23.0000  -4.0000  15.0000 Du        
   9754 ****        23.0000  -4.0000  15.2500 Du        
   9755 ****        23.0000  -4.0000  15.5000 Du        
   9756 ****        23.0000  -4.0000  15.7500 Du        
   9757 ****        23.0000  -4.0000  16.0000 Du        
   9758 ****        23.0000  -3.7500  14.7500 Du        
   9759 ****        23.0000  -3.7500  15.0000 Du        
   9760 ****        23.0000  -3.7500  15.2500 Du        
   9761 ****        23.0000  -3.7500  15.5000 Du        
   9762 ****        23.0000  -3.7500  15.7500 Du        
   9763 ****        23.0000  -3.7500  16.0000 Du        
   9764 ****        23.0000  -3.5000  14.7500 Du        
   9765 ****        23.0000  -3.5000  15.0000 Du        
   9766 ****        23.0000  -3.5000  15.2500 Du        
   9767 ****        23.0000  -3.5000  15.5000 Du        
   9768 ****        23.0000  -3.5000  15.7500 Du        
   9769 ****        23.0000  -3.5000  16.0000 Du        
   9770 ****        23.0000  -3.5000  16.2500 Du        
   9771 ****        23.0000  -3.2500  15.0000 Du        
   9772 ****        23.0000  -3.2500  15.2500 Du        
   9773 ****        23.0000  -3.2500  15.5000 Du        
   9774 ****        23.0000  -3.2500  15.7500 Du        
   9775 ****        23.0000  -3.2500  16.0000 Du        
   9776 ****        23.0000  -3.2500  16.2500 Du        
   9777 ****        23.0000  -3.2500  16.5000 Du        
   9778 ****        23.0000  -3.2500  16.7500 Du        
   9779 ****        23.0000  -3.0000  15.2500 Du        
   9780 ****        23.0000  -3.0000  15.5000 Du        
   9781 ****        23.0000  -3.0000  15.7500 Du        
   9782 ****        23.0000  -3.0000  16.0000 Du        
   9783 ****        23.0000  -3.0000  16.2500 Du        
   9784 ****        23.0000  -3.0000  16.5000 Du        
   9785 ****        23.0000  -3.0000  16.7500 Du        
   9786 ****        23.0000  -3.0000  17.0000 Du        
   9787 ****        23.0000  -2.7500  15.7500 Du        
   9788 ****        23.0000  -2.7500  16.0000 Du        
   9789 ****        23.0000  -2.7500  16.2500 Du        
   9790 ****        23.0000  -2.7500  16.5000 Du        
   9791 ****        23.0000  -2.7500  16.7500 Du        
   9792 ****        23.0000  -2.5000  16.2500 Du        
   9793 ****        23.0000  -2.5000  16.5000 Du        
   9794 ****        23.0000  -2.5000  16.7500 Du        
   9795 ****        23.2500 -14.5000  -0.7500 Du        
   9796 ****        23.2500 -14.5000  -0.5000 Du        
   9797 ****        23.2500 -14.5000  -0.2500 Du        
   9798 ****        23.2500 -14.5000   0.0000 Du        
   9799 ****        23.2500 -14.2500  -1.0000 Du        
   9800 ****        23.2500 -14.2500  -0.7500 Du        
   9801 ****        23.2500 -14.2500  -0.5000 Du        
   9802 ****        23.2500 -14.2500  -0.2500 Du        
   9803 ****        23.2500 -14.2500   0.0000 Du        
   9804 ****        23.2500 -14.2500   0.2500 Du        
   9805 ****        23.2500 -14.0000  -1.0000 Du        
   9806 ****        23.2500 -14.0000  -0.7500 Du        
   9807 ****        23.2500 -14.0000  -0.5000 Du        
   9808 ****        23.2500 -14.0000  -0.2500 Du        
   9809 ****        23.2500 -14.0000   0.0000 Du        
   9810 ****        23.2500 -14.0000   0.2500 Du        
   9811 ****        23.2500 -14.0000   0.5000 Du        
   9812 ****        23.2500 -14.0000   0.7500 Du        
   9813 ****        23.2500 -13.7500  -1.2500 Du        
   9814 ****        23.2500 -13.7500  -1.0000 Du        
   9815 ****        23.2500 -13.7500  -0.7500 Du        
   9816 ****        23.2500 -13.7500  -0.5000 Du        
   9817 ****        23.2500 -13.7500  -0.2500 Du        
   9818 ****        23.2500 -13.7500   0.0000 Du        
   9819 ****        23.2500 -13.7500   0.2500 Du        
   9820 ****        23.2500 -13.7500   0.5000 Du        
   9821 ****        23.2500 -13.7500   0.7500 Du        
   9822 ****        23.2500 -13.7500   1.0000 Du        
   9823 ****        23.2500 -13.5000  -1.2500 Du        
   9824 ****        23.2500 -13.5000  -1.0000 Du        
   9825 ****        23.2500 -13.5000  -0.7500 Du        
   9826 ****        23.2500 -13.5000  -0.5000 Du        
   9827 ****        23.2500 -13.5000  -0.2500 Du        
   9828 ****        23.2500 -13.5000   0.0000 Du        
   9829 ****        23.2500 -13.5000   0.2500 Du        
   9830 ****        23.2500 -13.5000   0.5000 Du        
   9831 ****        23.2500 -13.5000   0.7500 Du        
   9832 ****        23.2500 -13.5000   1.0000 Du        
   9833 ****        23.2500 -13.5000   1.2500 Du        
   9834 ****        23.2500 -13.2500  -1.5000 Du        
   9835 ****        23.2500 -13.2500  -1.2500 Du        
   9836 ****        23.2500 -13.2500  -1.0000 Du        
   9837 ****        23.2500 -13.2500  -0.7500 Du        
   9838 ****        23.2500 -13.2500  -0.5000 Du        
   9839 ****        23.2500 -13.2500  -0.2500 Du        
   9840 ****        23.2500 -13.2500   0.0000 Du        
   9841 ****        23.2500 -13.2500   0.2500 Du        
   9842 ****        23.2500 -13.2500   0.5000 Du        
   9843 ****        23.2500 -13.2500   0.7500 Du        
   9844 ****        23.2500 -13.2500   1.0000 Du        
   9845 ****        23.2500 -13.2500   1.2500 Du        
   9846 ****        23.2500 -13.0000  -1.5000 Du        
   9847 ****        23.2500 -13.0000  -1.2500 Du        
   9848 ****        23.2500 -13.0000  -1.0000 Du        
   9849 ****        23.2500 -13.0000  -0.7500 Du        
   9850 ****        23.2500 -13.0000  -0.5000 Du        
   9851 ****        23.2500 -13.0000  -0.2500 Du        
   9852 ****        23.2500 -13.0000   0.0000 Du        
   9853 ****        23.2500 -13.0000   0.2500 Du        
   9854 ****        23.2500 -13.0000   0.5000 Du        
   9855 ****        23.2500 -13.0000   0.7500 Du        
   9856 ****        23.2500 -13.0000   1.0000 Du        
   9857 ****        23.2500 -13.0000   1.2500 Du        
   9858 ****        23.2500 -13.0000   1.5000 Du        
   9859 ****        23.2500 -12.7500  -1.5000 Du        
   9860 ****        23.2500 -12.7500  -1.2500 Du        
   9861 ****        23.2500 -12.7500  -1.0000 Du        
   9862 ****        23.2500 -12.7500  -0.7500 Du        
   9863 ****        23.2500 -12.7500  -0.5000 Du        
   9864 ****        23.2500 -12.7500  -0.2500 Du        
   9865 ****        23.2500 -12.7500   0.0000 Du        
   9866 ****        23.2500 -12.7500   0.2500 Du        
   9867 ****        23.2500 -12.7500   0.5000 Du        
   9868 ****        23.2500 -12.7500   0.7500 Du        
   9869 ****        23.2500 -12.7500   1.0000 Du        
   9870 ****        23.2500 -12.7500   1.2500 Du        
   9871 ****        23.2500 -12.7500   1.5000 Du        
   9872 ****        23.2500 -12.5000  -1.2500 Du        
   9873 ****        23.2500 -12.5000  -1.0000 Du        
   9874 ****        23.2500 -12.5000  -0.7500 Du        
   9875 ****        23.2500 -12.5000  -0.5000 Du        
   9876 ****        23.2500 -12.5000  -0.2500 Du        
   9877 ****        23.2500 -12.5000   0.0000 Du        
   9878 ****        23.2500 -12.5000   0.2500 Du        
   9879 ****        23.2500 -12.5000   0.5000 Du        
   9880 ****        23.2500 -12.5000   0.7500 Du        
   9881 ****        23.2500 -12.5000   1.0000 Du        
   9882 ****        23.2500 -12.5000   1.2500 Du        
   9883 ****        23.2500 -12.5000   1.5000 Du        
   9884 ****        23.2500 -12.2500  -1.2500 Du        
   9885 ****        23.2500 -12.2500  -1.0000 Du        
   9886 ****        23.2500 -12.2500  -0.7500 Du        
   9887 ****        23.2500 -12.2500  -0.5000 Du        
   9888 ****        23.2500 -12.2500  -0.2500 Du        
   9889 ****        23.2500 -12.2500   0.0000 Du        
   9890 ****        23.2500 -12.2500   0.2500 Du        
   9891 ****        23.2500 -12.2500   0.5000 Du        
   9892 ****        23.2500 -12.2500   0.7500 Du        
   9893 ****        23.2500 -12.2500   1.0000 Du        
   9894 ****        23.2500 -12.2500   1.2500 Du        
   9895 ****        23.2500 -12.2500   1.5000 Du        
   9896 ****        23.2500 -12.0000  -1.0000 Du        
   9897 ****        23.2500 -12.0000  -0.7500 Du        
   9898 ****        23.2500 -12.0000  -0.5000 Du        
   9899 ****        23.2500 -12.0000  -0.2500 Du        
   9900 ****        23.2500 -12.0000   0.0000 Du        
   9901 ****        23.2500 -12.0000   0.2500 Du        
   9902 ****        23.2500 -12.0000   0.5000 Du        
   9903 ****        23.2500 -12.0000   0.7500 Du        
   9904 ****        23.2500 -12.0000   1.0000 Du        
   9905 ****        23.2500 -12.0000   1.2500 Du        
   9906 ****        23.2500 -12.0000   1.5000 Du        
   9907 ****        23.2500 -11.7500  -1.0000 Du        
   9908 ****        23.2500 -11.7500  -0.7500 Du        
   9909 ****        23.2500 -11.7500  -0.5000 Du        
   9910 ****        23.2500 -11.7500  -0.2500 Du        
   9911 ****        23.2500 -11.7500   0.0000 Du        
   9912 ****        23.2500 -11.7500   0.2500 Du        
   9913 ****        23.2500 -11.7500   0.5000 Du        
   9914 ****        23.2500 -11.7500   0.7500 Du        
   9915 ****        23.2500 -11.7500   1.0000 Du        
   9916 ****        23.2500 -11.7500   1.2500 Du        
   9917 ****        23.2500 -11.7500   1.5000 Du        
   9918 ****        23.2500 -11.5000  -0.7500 Du        
   9919 ****        23.2500 -11.5000  -0.5000 Du        
   9920 ****        23.2500 -11.5000  -0.2500 Du        
   9921 ****        23.2500 -11.5000   0.0000 Du        
   9922 ****        23.2500 -11.5000   0.2500 Du        
   9923 ****        23.2500 -11.5000   0.5000 Du        
   9924 ****        23.2500 -11.5000   0.7500 Du        
   9925 ****        23.2500 -11.5000   1.0000 Du        
   9926 ****        23.2500 -11.5000   1.2500 Du        
   9927 ****        23.2500 -11.5000   1.5000 Du        
   9928 ****        23.2500 -11.2500  -0.5000 Du        
   9929 ****        23.2500 -11.2500  -0.2500 Du        
   9930 ****        23.2500 -11.2500   0.0000 Du        
   9931 ****        23.2500 -11.2500   0.2500 Du        
   9932 ****        23.2500 -11.2500   0.5000 Du        
   9933 ****        23.2500 -11.2500   0.7500 Du        
   9934 ****        23.2500 -11.2500   1.0000 Du        
   9935 ****        23.2500 -11.2500   1.2500 Du        
   9936 ****        23.2500 -11.2500   1.5000 Du        
   9937 ****        23.2500 -11.0000  -0.5000 Du        
   9938 ****        23.2500 -11.0000  -0.2500 Du        
   9939 ****        23.2500 -11.0000   0.0000 Du        
   9940 ****        23.2500 -11.0000   0.2500 Du        
   9941 ****        23.2500 -11.0000   0.5000 Du        
   9942 ****        23.2500 -11.0000   0.7500 Du        
   9943 ****        23.2500 -11.0000   1.0000 Du        
   9944 ****        23.2500 -11.0000   1.2500 Du        
   9945 ****        23.2500 -11.0000   1.5000 Du        
   9946 ****        23.2500 -11.0000   1.7500 Du        
   9947 ****        23.2500 -10.7500  -0.2500 Du        
   9948 ****        23.2500 -10.7500   0.0000 Du        
   9949 ****        23.2500 -10.7500   0.2500 Du        
   9950 ****        23.2500 -10.7500   0.5000 Du        
   9951 ****        23.2500 -10.7500   0.7500 Du        
   9952 ****        23.2500 -10.7500   1.0000 Du        
   9953 ****        23.2500 -10.7500   1.2500 Du        
   9954 ****        23.2500 -10.7500   1.5000 Du        
   9955 ****        23.2500 -10.7500   1.7500 Du        
   9956 ****        23.2500  -9.2500   4.5000 Du        
   9957 ****        23.2500  -9.2500   4.7500 Du        
   9958 ****        23.2500  -9.2500   5.0000 Du        
   9959 ****        23.2500  -9.2500   5.2500 Du        
   9960 ****        23.2500  -9.2500   5.5000 Du        
   9961 ****        23.2500  -9.0000   4.7500 Du        
   9962 ****        23.2500  -9.0000   5.0000 Du        
   9963 ****        23.2500  -9.0000   5.2500 Du        
   9964 ****        23.2500  -9.0000   5.5000 Du        
   9965 ****        23.2500  -9.0000   5.7500 Du        
   9966 ****        23.2500  -8.2500   2.7500 Du        
   9967 ****        23.2500  -8.2500   3.0000 Du        
   9968 ****        23.2500  -8.0000   2.7500 Du        
   9969 ****        23.2500  -8.0000   3.0000 Du        
   9970 ****        23.2500  -8.0000   3.2500 Du        
   9971 ****        23.2500  -7.5000   9.7500 Du        
   9972 ****        23.2500  -7.5000  10.0000 Du        
   9973 ****        23.2500  -7.5000  10.2500 Du        
   9974 ****        23.2500  -7.5000  10.5000 Du        
   9975 ****        23.2500  -7.2500   9.7500 Du        
   9976 ****        23.2500  -7.2500  10.0000 Du        
   9977 ****        23.2500  -7.2500  10.2500 Du        
   9978 ****        23.2500  -7.2500  10.5000 Du        
   9979 ****        23.2500  -7.0000  10.0000 Du        
   9980 ****        23.2500  -7.0000  10.2500 Du        
   9981 ****        23.2500  -7.0000  10.5000 Du        
   9982 ****        23.2500  -6.7500  10.2500 Du        
   9983 ****        23.2500  -4.5000  14.7500 Du        
   9984 ****        23.2500  -4.5000  15.0000 Du        
   9985 ****        23.2500  -4.5000  15.2500 Du        
   9986 ****        23.2500  -4.2500  14.7500 Du        
   9987 ****        23.2500  -4.2500  15.0000 Du        
   9988 ****        23.2500  -4.2500  15.2500 Du        
   9989 ****        23.2500  -4.2500  15.5000 Du        
   9990 ****        23.2500  -4.2500  15.7500 Du        
   9991 ****        23.2500  -4.2500  16.0000 Du        
   9992 ****        23.2500  -4.0000  14.7500 Du        
   9993 ****        23.2500  -4.0000  15.0000 Du        
   9994 ****        23.2500  -4.0000  15.2500 Du        
   9995 ****        23.2500  -4.0000  15.5000 Du        
   9996 ****        23.2500  -4.0000  15.7500 Du        
   9997 ****        23.2500  -4.0000  16.0000 Du        
   9998 ****        23.2500  -3.7500  15.0000 Du        
   9999 ****        23.2500  -3.7500  15.2500 Du        
  10000 ****        23.2500  -3.7500  15.5000 Du        
  10001 ****        23.2500  -3.7500  15.7500 Du        
  10002 ****        23.2500  -3.7500  16.0000 Du        
  10003 ****        23.2500  -3.7500  16.2500 Du        
  10004 ****        23.2500  -3.5000  15.0000 Du        
  10005 ****        23.2500  -3.5000  15.2500 Du        
  10006 ****        23.2500  -3.5000  15.5000 Du        
  10007 ****        23.2500  -3.5000  15.7500 Du        
  10008 ****        23.2500  -3.5000  16.0000 Du        
  10009 ****        23.2500  -3.5000  16.2500 Du        
  10010 ****        23.2500  -3.5000  16.5000 Du        
  10011 ****        23.2500  -3.2500  15.0000 Du        
  10012 ****        23.2500  -3.2500  15.2500 Du        
  10013 ****        23.2500  -3.2500  15.5000 Du        
  10014 ****        23.2500  -3.2500  15.7500 Du        
  10015 ****        23.2500  -3.2500  16.0000 Du        
  10016 ****        23.2500  -3.2500  16.2500 Du        
  10017 ****        23.2500  -3.2500  16.5000 Du        
  10018 ****        23.2500  -3.2500  16.7500 Du        
  10019 ****        23.2500  -3.0000  15.2500 Du        
  10020 ****        23.2500  -3.0000  15.5000 Du        
  10021 ****        23.2500  -3.0000  15.7500 Du        
  10022 ****        23.2500  -3.0000  16.0000 Du        
  10023 ****        23.2500  -3.0000  16.2500 Du        
  10024 ****        23.2500  -3.0000  16.5000 Du        
  10025 ****        23.2500  -3.0000  16.7500 Du        
  10026 ****        23.2500  -3.0000  17.0000 Du        
  10027 ****        23.2500  -2.7500  15.7500 Du        
  10028 ****        23.2500  -2.7500  16.0000 Du        
  10029 ****        23.2500  -2.7500  16.2500 Du        
  10030 ****        23.2500  -2.7500  16.5000 Du        
  10031 ****        23.2500  -2.5000  16.0000 Du        
  10032 ****        23.2500  -2.5000  16.2500 Du        
  10033 ****        23.5000 -14.5000  -0.5000 Du        
  10034 ****        23.5000 -14.5000  -0.2500 Du        
  10035 ****        23.5000 -14.5000   0.0000 Du        
  10036 ****        23.5000 -14.2500  -0.7500 Du        
  10037 ****        23.5000 -14.2500  -0.5000 Du        
  10038 ****        23.5000 -14.2500  -0.2500 Du        
  10039 ****        23.5000 -14.2500   0.0000 Du        
  10040 ****        23.5000 -14.2500   0.2500 Du        
  10041 ****        23.5000 -14.2500   0.5000 Du        
  10042 ****        23.5000 -14.0000  -1.0000 Du        
  10043 ****        23.5000 -14.0000  -0.7500 Du        
  10044 ****        23.5000 -14.0000  -0.5000 Du        
  10045 ****        23.5000 -14.0000  -0.2500 Du        
  10046 ****        23.5000 -14.0000   0.0000 Du        
  10047 ****        23.5000 -14.0000   0.2500 Du        
  10048 ****        23.5000 -14.0000   0.5000 Du        
  10049 ****        23.5000 -14.0000   0.7500 Du        
  10050 ****        23.5000 -13.7500  -1.0000 Du        
  10051 ****        23.5000 -13.7500  -0.7500 Du        
  10052 ****        23.5000 -13.7500  -0.5000 Du        
  10053 ****        23.5000 -13.7500  -0.2500 Du        
  10054 ****        23.5000 -13.7500   0.0000 Du        
  10055 ****        23.5000 -13.7500   0.2500 Du        
  10056 ****        23.5000 -13.7500   0.5000 Du        
  10057 ****        23.5000 -13.7500   0.7500 Du        
  10058 ****        23.5000 -13.7500   1.0000 Du        
  10059 ****        23.5000 -13.5000  -1.0000 Du        
  10060 ****        23.5000 -13.5000  -0.7500 Du        
  10061 ****        23.5000 -13.5000  -0.5000 Du        
  10062 ****        23.5000 -13.5000  -0.2500 Du        
  10063 ****        23.5000 -13.5000   0.0000 Du        
  10064 ****        23.5000 -13.5000   0.2500 Du        
  10065 ****        23.5000 -13.5000   0.5000 Du        
  10066 ****        23.5000 -13.5000   0.7500 Du        
  10067 ****        23.5000 -13.5000   1.0000 Du        
  10068 ****        23.5000 -13.5000   1.2500 Du        
  10069 ****        23.5000 -13.2500  -1.2500 Du        
  10070 ****        23.5000 -13.2500  -1.0000 Du        
  10071 ****        23.5000 -13.2500  -0.7500 Du        
  10072 ****        23.5000 -13.2500  -0.5000 Du        
  10073 ****        23.5000 -13.2500  -0.2500 Du        
  10074 ****        23.5000 -13.2500   0.0000 Du        
  10075 ****        23.5000 -13.2500   0.2500 Du        
  10076 ****        23.5000 -13.2500   0.5000 Du        
  10077 ****        23.5000 -13.2500   0.7500 Du        
  10078 ****        23.5000 -13.2500   1.0000 Du        
  10079 ****        23.5000 -13.2500   1.2500 Du        
  10080 ****        23.5000 -13.2500   1.5000 Du        
  10081 ****        23.5000 -13.0000  -1.2500 Du        
  10082 ****        23.5000 -13.0000  -1.0000 Du        
  10083 ****        23.5000 -13.0000  -0.7500 Du        
  10084 ****        23.5000 -13.0000  -0.5000 Du        
  10085 ****        23.5000 -13.0000  -0.2500 Du        
  10086 ****        23.5000 -13.0000   0.0000 Du        
  10087 ****        23.5000 -13.0000   0.2500 Du        
  10088 ****        23.5000 -13.0000   0.5000 Du        
  10089 ****        23.5000 -13.0000   0.7500 Du        
  10090 ****        23.5000 -13.0000   1.0000 Du        
  10091 ****        23.5000 -13.0000   1.2500 Du        
  10092 ****        23.5000 -13.0000   1.5000 Du        
  10093 ****        23.5000 -12.7500  -1.0000 Du        
  10094 ****        23.5000 -12.7500  -0.7500 Du        
  10095 ****        23.5000 -12.7500  -0.5000 Du        
  10096 ****        23.5000 -12.7500  -0.2500 Du        
  10097 ****        23.5000 -12.7500   0.0000 Du        
  10098 ****        23.5000 -12.7500   0.2500 Du        
  10099 ****        23.5000 -12.7500   0.5000 Du        
  10100 ****        23.5000 -12.7500   0.7500 Du        
  10101 ****        23.5000 -12.7500   1.0000 Du        
  10102 ****        23.5000 -12.7500   1.2500 Du        
  10103 ****        23.5000 -12.7500   1.5000 Du        
  10104 ****        23.5000 -12.7500   1.7500 Du        
  10105 ****        23.5000 -12.5000  -0.7500 Du        
  10106 ****        23.5000 -12.5000  -0.5000 Du        
  10107 ****        23.5000 -12.5000  -0.2500 Du        
  10108 ****        23.5000 -12.5000   0.0000 Du        
  10109 ****        23.5000 -12.5000   0.2500 Du        
  10110 ****        23.5000 -12.5000   0.5000 Du        
  10111 ****        23.5000 -12.5000   0.7500 Du        
  10112 ****        23.5000 -12.5000   1.0000 Du        
  10113 ****        23.5000 -12.5000   1.2500 Du        
  10114 ****        23.5000 -12.5000   1.5000 Du        
  10115 ****        23.5000 -12.5000   1.7500 Du        
  10116 ****        23.5000 -12.2500  -0.7500 Du        
  10117 ****        23.5000 -12.2500  -0.5000 Du        
  10118 ****        23.5000 -12.2500  -0.2500 Du        
  10119 ****        23.5000 -12.2500   0.0000 Du        
  10120 ****        23.5000 -12.2500   0.2500 Du        
  10121 ****        23.5000 -12.2500   0.5000 Du        
  10122 ****        23.5000 -12.2500   0.7500 Du        
  10123 ****        23.5000 -12.2500   1.0000 Du        
  10124 ****        23.5000 -12.2500   1.2500 Du        
  10125 ****        23.5000 -12.2500   1.5000 Du        
  10126 ****        23.5000 -12.2500   1.7500 Du        
  10127 ****        23.5000 -12.0000  -0.7500 Du        
  10128 ****        23.5000 -12.0000  -0.5000 Du        
  10129 ****        23.5000 -12.0000  -0.2500 Du        
  10130 ****        23.5000 -12.0000   0.0000 Du        
  10131 ****        23.5000 -12.0000   0.2500 Du        
  10132 ****        23.5000 -12.0000   0.5000 Du        
  10133 ****        23.5000 -12.0000   0.7500 Du        
  10134 ****        23.5000 -12.0000   1.0000 Du        
  10135 ****        23.5000 -12.0000   1.2500 Du        
  10136 ****        23.5000 -12.0000   1.5000 Du        
  10137 ****        23.5000 -12.0000   1.7500 Du        
  10138 ****        23.5000 -12.0000   2.0000 Du        
  10139 ****        23.5000 -11.7500  -0.5000 Du        
  10140 ****        23.5000 -11.7500  -0.2500 Du        
  10141 ****        23.5000 -11.7500   0.0000 Du        
  10142 ****        23.5000 -11.7500   0.2500 Du        
  10143 ****        23.5000 -11.7500   0.5000 Du        
  10144 ****        23.5000 -11.7500   0.7500 Du        
  10145 ****        23.5000 -11.7500   1.0000 Du        
  10146 ****        23.5000 -11.7500   1.2500 Du        
  10147 ****        23.5000 -11.7500   1.5000 Du        
  10148 ****        23.5000 -11.7500   1.7500 Du        
  10149 ****        23.5000 -11.7500   2.0000 Du        
  10150 ****        23.5000 -11.5000  -0.2500 Du        
  10151 ****        23.5000 -11.5000   0.0000 Du        
  10152 ****        23.5000 -11.5000   0.2500 Du        
  10153 ****        23.5000 -11.5000   0.5000 Du        
  10154 ****        23.5000 -11.5000   0.7500 Du        
  10155 ****        23.5000 -11.5000   1.0000 Du        
  10156 ****        23.5000 -11.5000   1.2500 Du        
  10157 ****        23.5000 -11.5000   1.5000 Du        
  10158 ****        23.5000 -11.5000   1.7500 Du        
  10159 ****        23.5000 -11.5000   2.0000 Du        
  10160 ****        23.5000 -11.2500  -0.2500 Du        
  10161 ****        23.5000 -11.2500   0.0000 Du        
  10162 ****        23.5000 -11.2500   0.2500 Du        
  10163 ****        23.5000 -11.2500   0.5000 Du        
  10164 ****        23.5000 -11.2500   0.7500 Du        
  10165 ****        23.5000 -11.2500   1.0000 Du        
  10166 ****        23.5000 -11.2500   1.2500 Du        
  10167 ****        23.5000 -11.2500   1.5000 Du        
  10168 ****        23.5000 -11.2500   1.7500 Du        
  10169 ****        23.5000 -11.2500   2.0000 Du        
  10170 ****        23.5000 -11.0000  -0.2500 Du        
  10171 ****        23.5000 -11.0000   0.0000 Du        
  10172 ****        23.5000 -11.0000   0.2500 Du        
  10173 ****        23.5000 -11.0000   0.5000 Du        
  10174 ****        23.5000 -11.0000   0.7500 Du        
  10175 ****        23.5000 -11.0000   1.0000 Du        
  10176 ****        23.5000 -11.0000   1.2500 Du        
  10177 ****        23.5000 -11.0000   1.5000 Du        
  10178 ****        23.5000 -11.0000   1.7500 Du        
  10179 ****        23.5000 -11.0000   2.0000 Du        
  10180 ****        23.5000 -10.7500  -0.2500 Du        
  10181 ****        23.5000 -10.7500   0.0000 Du        
  10182 ****        23.5000 -10.7500   0.2500 Du        
  10183 ****        23.5000 -10.7500   0.5000 Du        
  10184 ****        23.5000 -10.7500   0.7500 Du        
  10185 ****        23.5000 -10.7500   1.0000 Du        
  10186 ****        23.5000 -10.7500   1.2500 Du        
  10187 ****        23.5000 -10.7500   1.5000 Du        
  10188 ****        23.5000 -10.7500   1.7500 Du        
  10189 ****        23.5000 -10.7500   2.0000 Du        
  10190 ****        23.5000 -10.5000   0.5000 Du        
  10191 ****        23.5000 -10.5000   0.7500 Du        
  10192 ****        23.5000 -10.5000   1.0000 Du        
  10193 ****        23.5000 -10.5000   1.2500 Du        
  10194 ****        23.5000 -10.2500   0.5000 Du        
  10195 ****        23.5000 -10.2500   0.7500 Du        
  10196 ****        23.5000 -10.2500   1.0000 Du        
  10197 ****        23.5000 -10.2500   1.2500 Du        
  10198 ****        23.5000 -10.0000   0.7500 Du        
  10199 ****        23.5000 -10.0000   1.0000 Du        
  10200 ****        23.5000  -9.2500   4.2500 Du        
  10201 ****        23.5000  -9.2500   5.0000 Du        
  10202 ****        23.5000  -9.2500   5.2500 Du        
  10203 ****        23.5000  -9.0000   4.2500 Du        
  10204 ****        23.5000  -9.0000   4.7500 Du        
  10205 ****        23.5000  -9.0000   5.0000 Du        
  10206 ****        23.5000  -9.0000   5.2500 Du        
  10207 ****        23.5000  -8.7500   1.7500 Du        
  10208 ****        23.5000  -8.2500   3.0000 Du        
  10209 ****        23.5000  -8.2500   3.2500 Du        
  10210 ****        23.5000  -8.0000   3.0000 Du        
  10211 ****        23.5000  -8.0000   3.2500 Du        
  10212 ****        23.5000  -7.7500   3.0000 Du        
  10213 ****        23.5000  -7.7500   3.2500 Du        
  10214 ****        23.5000  -7.5000  10.0000 Du        
  10215 ****        23.5000  -7.5000  10.2500 Du        
  10216 ****        23.5000  -7.5000  10.5000 Du        
  10217 ****        23.5000  -7.2500  10.0000 Du        
  10218 ****        23.5000  -7.2500  10.2500 Du        
  10219 ****        23.5000  -7.2500  10.5000 Du        
  10220 ****        23.5000  -7.0000  10.0000 Du        
  10221 ****        23.5000  -7.0000  10.2500 Du        
  10222 ****        23.5000  -7.0000  10.5000 Du        
  10223 ****        23.5000  -7.0000  10.7500 Du        
  10224 ****        23.5000  -6.7500  10.2500 Du        
  10225 ****        23.5000  -4.5000  14.7500 Du        
  10226 ****        23.5000  -4.5000  15.0000 Du        
  10227 ****        23.5000  -4.5000  15.2500 Du        
  10228 ****        23.5000  -4.5000  15.5000 Du        
  10229 ****        23.5000  -4.5000  15.7500 Du        
  10230 ****        23.5000  -4.2500  15.0000 Du        
  10231 ****        23.5000  -4.2500  15.2500 Du        
  10232 ****        23.5000  -4.2500  15.5000 Du        
  10233 ****        23.5000  -4.2500  15.7500 Du        
  10234 ****        23.5000  -4.2500  16.0000 Du        
  10235 ****        23.5000  -4.2500  16.2500 Du        
  10236 ****        23.5000  -4.0000  15.0000 Du        
  10237 ****        23.5000  -4.0000  15.2500 Du        
  10238 ****        23.5000  -4.0000  15.5000 Du        
  10239 ****        23.5000  -4.0000  15.7500 Du        
  10240 ****        23.5000  -4.0000  16.0000 Du        
  10241 ****        23.5000  -4.0000  16.2500 Du        
  10242 ****        23.5000  -3.7500  15.2500 Du        
  10243 ****        23.5000  -3.7500  15.5000 Du        
  10244 ****        23.5000  -3.7500  15.7500 Du        
  10245 ****        23.5000  -3.7500  16.0000 Du        
  10246 ****        23.5000  -3.7500  16.2500 Du        
  10247 ****        23.5000  -3.5000  15.2500 Du        
  10248 ****        23.5000  -3.5000  15.5000 Du        
  10249 ****        23.5000  -3.5000  15.7500 Du        
  10250 ****        23.5000  -3.5000  16.0000 Du        
  10251 ****        23.5000  -3.5000  16.2500 Du        
  10252 ****        23.5000  -3.5000  16.5000 Du        
  10253 ****        23.5000  -3.5000  16.7500 Du        
  10254 ****        23.5000  -3.2500  15.2500 Du        
  10255 ****        23.5000  -3.2500  15.5000 Du        
  10256 ****        23.5000  -3.2500  15.7500 Du        
  10257 ****        23.5000  -3.2500  16.0000 Du        
  10258 ****        23.5000  -3.2500  16.2500 Du        
  10259 ****        23.5000  -3.2500  16.5000 Du        
  10260 ****        23.5000  -3.2500  16.7500 Du        
  10261 ****        23.5000  -3.0000  15.2500 Du        
  10262 ****        23.5000  -3.0000  15.5000 Du        
  10263 ****        23.5000  -3.0000  15.7500 Du        
  10264 ****        23.5000  -3.0000  16.0000 Du        
  10265 ****        23.5000  -3.0000  16.2500 Du        
  10266 ****        23.5000  -3.0000  16.5000 Du        
  10267 ****        23.5000  -3.0000  16.7500 Du        
  10268 ****        23.5000  -2.7500  15.7500 Du        
  10269 ****        23.5000  -2.7500  16.0000 Du        
  10270 ****        23.5000  -2.7500  16.2500 Du        
  10271 ****        23.5000  -2.7500  16.5000 Du        
  10272 ****        23.5000  -2.5000  16.0000 Du        
  10273 ****        23.5000  -2.5000  16.2500 Du        
  10274 ****        23.7500 -14.5000  -0.5000 Du        
  10275 ****        23.7500 -14.5000  -0.2500 Du        
  10276 ****        23.7500 -14.5000   0.0000 Du        
  10277 ****        23.7500 -14.2500  -0.7500 Du        
  10278 ****        23.7500 -14.2500  -0.5000 Du        
  10279 ****        23.7500 -14.2500  -0.2500 Du        
  10280 ****        23.7500 -14.2500   0.0000 Du        
  10281 ****        23.7500 -14.2500   0.2500 Du        
  10282 ****        23.7500 -14.0000  -0.7500 Du        
  10283 ****        23.7500 -14.0000  -0.5000 Du        
  10284 ****        23.7500 -14.0000  -0.2500 Du        
  10285 ****        23.7500 -14.0000   0.0000 Du        
  10286 ****        23.7500 -14.0000   0.2500 Du        
  10287 ****        23.7500 -14.0000   0.5000 Du        
  10288 ****        23.7500 -13.7500  -0.7500 Du        
  10289 ****        23.7500 -13.7500  -0.5000 Du        
  10290 ****        23.7500 -13.7500  -0.2500 Du        
  10291 ****        23.7500 -13.7500   0.0000 Du        
  10292 ****        23.7500 -13.7500   0.2500 Du        
  10293 ****        23.7500 -13.7500   0.5000 Du        
  10294 ****        23.7500 -13.7500   0.7500 Du        
  10295 ****        23.7500 -13.5000  -0.7500 Du        
  10296 ****        23.7500 -13.5000  -0.5000 Du        
  10297 ****        23.7500 -13.5000  -0.2500 Du        
  10298 ****        23.7500 -13.5000   0.0000 Du        
  10299 ****        23.7500 -13.5000   0.2500 Du        
  10300 ****        23.7500 -13.5000   0.5000 Du        
  10301 ****        23.7500 -13.5000   0.7500 Du        
  10302 ****        23.7500 -13.2500  -0.7500 Du        
  10303 ****        23.7500 -13.2500  -0.5000 Du        
  10304 ****        23.7500 -13.2500  -0.2500 Du        
  10305 ****        23.7500 -13.2500   0.0000 Du        
  10306 ****        23.7500 -13.2500   0.2500 Du        
  10307 ****        23.7500 -13.2500   0.5000 Du        
  10308 ****        23.7500 -13.2500   0.7500 Du        
  10309 ****        23.7500 -13.2500   1.0000 Du        
  10310 ****        23.7500 -13.0000  -0.7500 Du        
  10311 ****        23.7500 -13.0000  -0.5000 Du        
  10312 ****        23.7500 -13.0000  -0.2500 Du        
  10313 ****        23.7500 -13.0000   0.0000 Du        
  10314 ****        23.7500 -13.0000   0.2500 Du        
  10315 ****        23.7500 -13.0000   0.5000 Du        
  10316 ****        23.7500 -13.0000   0.7500 Du        
  10317 ****        23.7500 -13.0000   1.0000 Du        
  10318 ****        23.7500 -13.0000   1.2500 Du        
  10319 ****        23.7500 -12.7500  -0.5000 Du        
  10320 ****        23.7500 -12.7500  -0.2500 Du        
  10321 ****        23.7500 -12.7500   0.0000 Du        
  10322 ****        23.7500 -12.7500   0.2500 Du        
  10323 ****        23.7500 -12.7500   0.5000 Du        
  10324 ****        23.7500 -12.7500   0.7500 Du        
  10325 ****        23.7500 -12.7500   1.0000 Du        
  10326 ****        23.7500 -12.7500   1.2500 Du        
  10327 ****        23.7500 -12.7500   1.5000 Du        
  10328 ****        23.7500 -12.7500   1.7500 Du        
  10329 ****        23.7500 -12.5000  -0.2500 Du        
  10330 ****        23.7500 -12.5000   0.0000 Du        
  10331 ****        23.7500 -12.5000   0.2500 Du        
  10332 ****        23.7500 -12.5000   0.5000 Du        
  10333 ****        23.7500 -12.5000   0.7500 Du        
  10334 ****        23.7500 -12.5000   1.0000 Du        
  10335 ****        23.7500 -12.5000   1.2500 Du        
  10336 ****        23.7500 -12.5000   1.5000 Du        
  10337 ****        23.7500 -12.5000   1.7500 Du        
  10338 ****        23.7500 -12.2500  -0.2500 Du        
  10339 ****        23.7500 -12.2500   0.0000 Du        
  10340 ****        23.7500 -12.2500   0.2500 Du        
  10341 ****        23.7500 -12.2500   0.5000 Du        
  10342 ****        23.7500 -12.2500   0.7500 Du        
  10343 ****        23.7500 -12.2500   1.0000 Du        
  10344 ****        23.7500 -12.2500   1.2500 Du        
  10345 ****        23.7500 -12.2500   1.5000 Du        
  10346 ****        23.7500 -12.2500   1.7500 Du        
  10347 ****        23.7500 -12.2500   2.0000 Du        
  10348 ****        23.7500 -12.0000  -0.2500 Du        
  10349 ****        23.7500 -12.0000   0.0000 Du        
  10350 ****        23.7500 -12.0000   0.2500 Du        
  10351 ****        23.7500 -12.0000   0.5000 Du        
  10352 ****        23.7500 -12.0000   0.7500 Du        
  10353 ****        23.7500 -12.0000   1.0000 Du        
  10354 ****        23.7500 -12.0000   1.2500 Du        
  10355 ****        23.7500 -12.0000   1.5000 Du        
  10356 ****        23.7500 -12.0000   1.7500 Du        
  10357 ****        23.7500 -12.0000   2.0000 Du        
  10358 ****        23.7500 -12.0000   2.2500 Du        
  10359 ****        23.7500 -11.7500  -0.2500 Du        
  10360 ****        23.7500 -11.7500   0.0000 Du        
  10361 ****        23.7500 -11.7500   0.2500 Du        
  10362 ****        23.7500 -11.7500   0.5000 Du        
  10363 ****        23.7500 -11.7500   0.7500 Du        
  10364 ****        23.7500 -11.7500   1.0000 Du        
  10365 ****        23.7500 -11.7500   1.2500 Du        
  10366 ****        23.7500 -11.7500   1.5000 Du        
  10367 ****        23.7500 -11.7500   1.7500 Du        
  10368 ****        23.7500 -11.7500   2.0000 Du        
  10369 ****        23.7500 -11.7500   2.2500 Du        
  10370 ****        23.7500 -11.5000   0.0000 Du        
  10371 ****        23.7500 -11.5000   0.2500 Du        
  10372 ****        23.7500 -11.5000   0.5000 Du        
  10373 ****        23.7500 -11.5000   0.7500 Du        
  10374 ****        23.7500 -11.5000   1.0000 Du        
  10375 ****        23.7500 -11.5000   1.2500 Du        
  10376 ****        23.7500 -11.5000   1.5000 Du        
  10377 ****        23.7500 -11.5000   1.7500 Du        
  10378 ****        23.7500 -11.5000   2.0000 Du        
  10379 ****        23.7500 -11.5000   2.2500 Du        
  10380 ****        23.7500 -11.2500   0.0000 Du        
  10381 ****        23.7500 -11.2500   0.2500 Du        
  10382 ****        23.7500 -11.2500   0.5000 Du        
  10383 ****        23.7500 -11.2500   0.7500 Du        
  10384 ****        23.7500 -11.2500   1.0000 Du        
  10385 ****        23.7500 -11.2500   1.2500 Du        
  10386 ****        23.7500 -11.2500   1.5000 Du        
  10387 ****        23.7500 -11.2500   1.7500 Du        
  10388 ****        23.7500 -11.2500   2.0000 Du        
  10389 ****        23.7500 -11.2500   2.2500 Du        
  10390 ****        23.7500 -11.0000   0.0000 Du        
  10391 ****        23.7500 -11.0000   0.2500 Du        
  10392 ****        23.7500 -11.0000   0.5000 Du        
  10393 ****        23.7500 -11.0000   0.7500 Du        
  10394 ****        23.7500 -11.0000   1.0000 Du        
  10395 ****        23.7500 -11.0000   1.2500 Du        
  10396 ****        23.7500 -11.0000   1.5000 Du        
  10397 ****        23.7500 -11.0000   1.7500 Du        
  10398 ****        23.7500 -11.0000   2.0000 Du        
  10399 ****        23.7500 -11.0000   2.2500 Du        
  10400 ****        23.7500 -11.0000   2.5000 Du        
  10401 ****        23.7500 -10.7500   0.0000 Du        
  10402 ****        23.7500 -10.7500   0.2500 Du        
  10403 ****        23.7500 -10.7500   0.5000 Du        
  10404 ****        23.7500 -10.7500   0.7500 Du        
  10405 ****        23.7500 -10.7500   1.0000 Du        
  10406 ****        23.7500 -10.7500   1.2500 Du        
  10407 ****        23.7500 -10.7500   1.5000 Du        
  10408 ****        23.7500 -10.7500   1.7500 Du        
  10409 ****        23.7500 -10.7500   2.0000 Du        
  10410 ****        23.7500 -10.7500   2.2500 Du        
  10411 ****        23.7500 -10.5000   0.5000 Du        
  10412 ****        23.7500 -10.5000   0.7500 Du        
  10413 ****        23.7500 -10.5000   1.0000 Du        
  10414 ****        23.7500 -10.5000   1.2500 Du        
  10415 ****        23.7500 -10.2500   0.5000 Du        
  10416 ****        23.7500 -10.2500   0.7500 Du        
  10417 ****        23.7500 -10.2500   1.0000 Du        
  10418 ****        23.7500 -10.2500   1.2500 Du        
  10419 ****        23.7500 -10.0000   0.5000 Du        
  10420 ****        23.7500 -10.0000   0.7500 Du        
  10421 ****        23.7500 -10.0000   1.0000 Du        
  10422 ****        23.7500 -10.0000   1.2500 Du        
  10423 ****        23.7500  -9.7500   1.0000 Du        
  10424 ****        23.7500  -9.7500   1.2500 Du        
  10425 ****        23.7500  -9.7500   4.2500 Du        
  10426 ****        23.7500  -9.2500   1.5000 Du        
  10427 ****        23.7500  -9.2500   1.7500 Du        
  10428 ****        23.7500  -9.2500   4.0000 Du        
  10429 ****        23.7500  -9.2500   4.2500 Du        
  10430 ****        23.7500  -9.2500   5.0000 Du        
  10431 ****        23.7500  -9.0000   1.5000 Du        
  10432 ****        23.7500  -9.0000   1.7500 Du        
  10433 ****        23.7500  -9.0000   2.0000 Du        
  10434 ****        23.7500  -9.0000   4.0000 Du        
  10435 ****        23.7500  -9.0000   4.2500 Du        
  10436 ****        23.7500  -8.5000   3.2500 Du        
  10437 ****        23.7500  -8.2500   2.7500 Du        
  10438 ****        23.7500  -8.2500   3.0000 Du        
  10439 ****        23.7500  -8.2500   3.2500 Du        
  10440 ****        23.7500  -8.0000   2.7500 Du        
  10441 ****        23.7500  -8.0000   3.0000 Du        
  10442 ****        23.7500  -8.0000   3.2500 Du        
  10443 ****        23.7500  -8.0000   3.5000 Du        
  10444 ****        23.7500  -7.7500   3.0000 Du        
  10445 ****        23.7500  -7.7500   3.2500 Du        
  10446 ****        23.7500  -7.7500  10.2500 Du        
  10447 ****        23.7500  -7.7500  10.5000 Du        
  10448 ****        23.7500  -7.5000  10.0000 Du        
  10449 ****        23.7500  -7.5000  10.2500 Du        
  10450 ****        23.7500  -7.5000  10.5000 Du        
  10451 ****        23.7500  -7.2500  10.0000 Du        
  10452 ****        23.7500  -7.2500  10.2500 Du        
  10453 ****        23.7500  -7.2500  10.5000 Du        
  10454 ****        23.7500  -7.2500  10.7500 Du        
  10455 ****        23.7500  -7.0000  10.2500 Du        
  10456 ****        23.7500  -7.0000  10.5000 Du        
  10457 ****        23.7500  -7.0000  10.7500 Du        
  10458 ****        23.7500  -4.5000  15.0000 Du        
  10459 ****        23.7500  -4.5000  15.2500 Du        
  10460 ****        23.7500  -4.5000  15.5000 Du        
  10461 ****        23.7500  -4.5000  15.7500 Du        
  10462 ****        23.7500  -4.5000  16.0000 Du        
  10463 ****        23.7500  -4.2500  15.2500 Du        
  10464 ****        23.7500  -4.2500  15.5000 Du        
  10465 ****        23.7500  -4.2500  15.7500 Du        
  10466 ****        23.7500  -4.2500  16.0000 Du        
  10467 ****        23.7500  -4.2500  16.2500 Du        
  10468 ****        23.7500  -4.0000  15.2500 Du        
  10469 ****        23.7500  -4.0000  15.5000 Du        
  10470 ****        23.7500  -4.0000  15.7500 Du        
  10471 ****        23.7500  -4.0000  16.0000 Du        
  10472 ****        23.7500  -4.0000  16.2500 Du        
  10473 ****        23.7500  -3.7500  15.2500 Du        
  10474 ****        23.7500  -3.7500  15.5000 Du        
  10475 ****        23.7500  -3.7500  15.7500 Du        
  10476 ****        23.7500  -3.7500  16.0000 Du        
  10477 ****        23.7500  -3.7500  16.2500 Du        
  10478 ****        23.7500  -3.7500  16.5000 Du        
  10479 ****        23.7500  -3.5000  15.2500 Du        
  10480 ****        23.7500  -3.5000  15.5000 Du        
  10481 ****        23.7500  -3.5000  15.7500 Du        
  10482 ****        23.7500  -3.5000  16.0000 Du        
  10483 ****        23.7500  -3.5000  16.2500 Du        
  10484 ****        23.7500  -3.5000  16.5000 Du        
  10485 ****        23.7500  -3.5000  16.7500 Du        
  10486 ****        23.7500  -3.2500  15.5000 Du        
  10487 ****        23.7500  -3.2500  15.7500 Du        
  10488 ****        23.7500  -3.2500  16.0000 Du        
  10489 ****        23.7500  -3.2500  16.2500 Du        
  10490 ****        23.7500  -3.2500  16.5000 Du        
  10491 ****        23.7500  -3.2500  16.7500 Du        
  10492 ****        23.7500  -3.0000  15.5000 Du        
  10493 ****        23.7500  -3.0000  15.7500 Du        
  10494 ****        23.7500  -3.0000  16.0000 Du        
  10495 ****        23.7500  -3.0000  16.2500 Du        
  10496 ****        23.7500  -3.0000  16.5000 Du        
  10497 ****        23.7500  -2.7500  15.7500 Du        
  10498 ****        23.7500  -2.7500  16.0000 Du        
  10499 ****        23.7500  -2.7500  16.2500 Du        
  10500 ****        24.0000 -14.2500  -0.2500 Du        
  10501 ****        24.0000 -14.2500   0.0000 Du        
  10502 ****        24.0000 -14.0000  -0.2500 Du        
  10503 ****        24.0000 -14.0000   0.0000 Du        
  10504 ****        24.0000 -14.0000   0.2500 Du        
  10505 ****        24.0000 -13.7500  -0.2500 Du        
  10506 ****        24.0000 -13.7500   0.0000 Du        
  10507 ****        24.0000 -13.7500   0.2500 Du        
  10508 ****        24.0000 -13.5000  -0.2500 Du        
  10509 ****        24.0000 -13.5000   0.0000 Du        
  10510 ****        24.0000 -13.5000   0.2500 Du        
  10511 ****        24.0000 -13.2500  -0.2500 Du        
  10512 ****        24.0000 -13.2500   0.0000 Du        
  10513 ****        24.0000 -13.2500   0.2500 Du        
  10514 ****        24.0000 -13.0000  -0.2500 Du        
  10515 ****        24.0000 -13.0000   0.0000 Du        
  10516 ****        24.0000 -13.0000   0.2500 Du        
  10517 ****        24.0000 -13.0000   0.5000 Du        
  10518 ****        24.0000 -12.7500   0.0000 Du        
  10519 ****        24.0000 -12.7500   0.2500 Du        
  10520 ****        24.0000 -12.7500   0.5000 Du        
  10521 ****        24.0000 -12.5000   0.2500 Du        
  10522 ****        24.0000 -12.5000   0.5000 Du        
  10523 ****        24.0000 -12.5000   0.7500 Du        
  10524 ****        24.0000 -12.2500   0.2500 Du        
  10525 ****        24.0000 -12.2500   0.5000 Du        
  10526 ****        24.0000 -12.2500   0.7500 Du        
  10527 ****        24.0000 -12.2500   1.0000 Du        
  10528 ****        24.0000 -12.2500   1.2500 Du        
  10529 ****        24.0000 -12.0000   0.2500 Du        
  10530 ****        24.0000 -12.0000   0.5000 Du        
  10531 ****        24.0000 -12.0000   0.7500 Du        
  10532 ****        24.0000 -12.0000   1.0000 Du        
  10533 ****        24.0000 -12.0000   1.2500 Du        
  10534 ****        24.0000 -12.0000   1.5000 Du        
  10535 ****        24.0000 -12.0000   1.7500 Du        
  10536 ****        24.0000 -12.0000   2.0000 Du        
  10537 ****        24.0000 -12.0000   2.2500 Du        
  10538 ****        24.0000 -12.0000   2.5000 Du        
  10539 ****        24.0000 -11.7500   0.2500 Du        
  10540 ****        24.0000 -11.7500   0.5000 Du        
  10541 ****        24.0000 -11.7500   0.7500 Du        
  10542 ****        24.0000 -11.7500   1.0000 Du        
  10543 ****        24.0000 -11.7500   1.2500 Du        
  10544 ****        24.0000 -11.7500   1.5000 Du        
  10545 ****        24.0000 -11.7500   1.7500 Du        
  10546 ****        24.0000 -11.7500   2.0000 Du        
  10547 ****        24.0000 -11.7500   2.2500 Du        
  10548 ****        24.0000 -11.7500   2.5000 Du        
  10549 ****        24.0000 -11.7500   2.7500 Du        
  10550 ****        24.0000 -11.5000   0.2500 Du        
  10551 ****        24.0000 -11.5000   0.5000 Du        
  10552 ****        24.0000 -11.5000   0.7500 Du        
  10553 ****        24.0000 -11.5000   1.0000 Du        
  10554 ****        24.0000 -11.5000   1.2500 Du        
  10555 ****        24.0000 -11.5000   1.5000 Du        
  10556 ****        24.0000 -11.5000   1.7500 Du        
  10557 ****        24.0000 -11.5000   2.0000 Du        
  10558 ****        24.0000 -11.5000   2.2500 Du        
  10559 ****        24.0000 -11.5000   2.5000 Du        
  10560 ****        24.0000 -11.2500   0.2500 Du        
  10561 ****        24.0000 -11.2500   0.5000 Du        
  10562 ****        24.0000 -11.2500   0.7500 Du        
  10563 ****        24.0000 -11.2500   1.0000 Du        
  10564 ****        24.0000 -11.2500   1.2500 Du        
  10565 ****        24.0000 -11.2500   1.5000 Du        
  10566 ****        24.0000 -11.2500   1.7500 Du        
  10567 ****        24.0000 -11.2500   2.0000 Du        
  10568 ****        24.0000 -11.2500   2.2500 Du        
  10569 ****        24.0000 -11.2500   2.5000 Du        
  10570 ****        24.0000 -11.2500   2.7500 Du        
  10571 ****        24.0000 -11.0000   0.2500 Du        
  10572 ****        24.0000 -11.0000   0.5000 Du        
  10573 ****        24.0000 -11.0000   0.7500 Du        
  10574 ****        24.0000 -11.0000   1.0000 Du        
  10575 ****        24.0000 -11.0000   1.2500 Du        
  10576 ****        24.0000 -11.0000   1.5000 Du        
  10577 ****        24.0000 -11.0000   1.7500 Du        
  10578 ****        24.0000 -11.0000   2.0000 Du        
  10579 ****        24.0000 -11.0000   2.2500 Du        
  10580 ****        24.0000 -11.0000   2.5000 Du        
  10581 ****        24.0000 -11.0000   2.7500 Du        
  10582 ****        24.0000 -11.0000   3.0000 Du        
  10583 ****        24.0000 -10.7500   0.2500 Du        
  10584 ****        24.0000 -10.7500   0.5000 Du        
  10585 ****        24.0000 -10.7500   0.7500 Du        
  10586 ****        24.0000 -10.7500   1.0000 Du        
  10587 ****        24.0000 -10.7500   1.2500 Du        
  10588 ****        24.0000 -10.7500   1.5000 Du        
  10589 ****        24.0000 -10.7500   1.7500 Du        
  10590 ****        24.0000 -10.7500   2.0000 Du        
  10591 ****        24.0000 -10.7500   2.2500 Du        
  10592 ****        24.0000 -10.7500   2.5000 Du        
  10593 ****        24.0000 -10.7500   2.7500 Du        
  10594 ****        24.0000 -10.7500   3.0000 Du        
  10595 ****        24.0000 -10.5000   0.5000 Du        
  10596 ****        24.0000 -10.5000   0.7500 Du        
  10597 ****        24.0000 -10.5000   1.0000 Du        
  10598 ****        24.0000 -10.5000   1.2500 Du        
  10599 ****        24.0000 -10.5000   1.5000 Du        
  10600 ****        24.0000 -10.5000   1.7500 Du        
  10601 ****        24.0000 -10.5000   2.0000 Du        
  10602 ****        24.0000 -10.5000   2.2500 Du        
  10603 ****        24.0000 -10.2500   0.5000 Du        
  10604 ****        24.0000 -10.2500   0.7500 Du        
  10605 ****        24.0000 -10.2500   1.0000 Du        
  10606 ****        24.0000 -10.2500   1.2500 Du        
  10607 ****        24.0000 -10.2500   2.0000 Du        
  10608 ****        24.0000 -10.0000   0.5000 Du        
  10609 ****        24.0000 -10.0000   0.7500 Du        
  10610 ****        24.0000 -10.0000   1.0000 Du        
  10611 ****        24.0000 -10.0000   1.2500 Du        
  10612 ****        24.0000 -10.0000   1.7500 Du        
  10613 ****        24.0000 -10.0000   2.0000 Du        
  10614 ****        24.0000 -10.0000   2.2500 Du        
  10615 ****        24.0000  -9.7500   0.7500 Du        
  10616 ****        24.0000  -9.7500   1.0000 Du        
  10617 ****        24.0000  -9.7500   1.2500 Du        
  10618 ****        24.0000  -9.7500   4.0000 Du        
  10619 ****        24.0000  -9.7500   4.2500 Du        
  10620 ****        24.0000  -9.2500   1.5000 Du        
  10621 ****        24.0000  -9.2500   1.7500 Du        
  10622 ****        24.0000  -9.2500   4.0000 Du        
  10623 ****        24.0000  -9.0000   1.5000 Du        
  10624 ****        24.0000  -9.0000   1.7500 Du        
  10625 ****        24.0000  -9.0000   2.0000 Du        
  10626 ****        24.0000  -9.0000   3.7500 Du        
  10627 ****        24.0000  -9.0000   4.0000 Du        
  10628 ****        24.0000  -8.7500   2.0000 Du        
  10629 ****        24.0000  -8.5000   3.2500 Du        
  10630 ****        24.0000  -8.2500   2.7500 Du        
  10631 ****        24.0000  -8.2500   3.0000 Du        
  10632 ****        24.0000  -8.2500   3.2500 Du        
  10633 ****        24.0000  -8.0000   2.7500 Du        
  10634 ****        24.0000  -8.0000   3.0000 Du        
  10635 ****        24.0000  -8.0000   3.2500 Du        
  10636 ****        24.0000  -8.0000   3.5000 Du        
  10637 ****        24.0000  -8.0000   3.7500 Du        
  10638 ****        24.0000  -7.7500   3.0000 Du        
  10639 ****        24.0000  -7.7500   3.2500 Du        
  10640 ****        24.0000  -7.7500  10.2500 Du        
  10641 ****        24.0000  -7.7500  10.5000 Du        
  10642 ****        24.0000  -7.5000  10.2500 Du        
  10643 ****        24.0000  -7.5000  10.5000 Du        
  10644 ****        24.0000  -7.2500  10.2500 Du        
  10645 ****        24.0000  -7.2500  10.5000 Du        
  10646 ****        24.0000  -7.2500  10.7500 Du        
  10647 ****        24.0000  -7.0000  10.5000 Du        
  10648 ****        24.0000  -7.0000  10.7500 Du        
  10649 ****        24.0000  -4.5000  15.2500 Du        
  10650 ****        24.0000  -4.5000  15.5000 Du        
  10651 ****        24.0000  -4.5000  15.7500 Du        
  10652 ****        24.0000  -4.5000  16.0000 Du        
  10653 ****        24.0000  -4.5000  16.2500 Du        
  10654 ****        24.0000  -4.2500  15.2500 Du        
  10655 ****        24.0000  -4.2500  15.5000 Du        
  10656 ****        24.0000  -4.2500  15.7500 Du        
  10657 ****        24.0000  -4.2500  16.0000 Du        
  10658 ****        24.0000  -4.2500  16.2500 Du        
  10659 ****        24.0000  -4.0000  15.2500 Du        
  10660 ****        24.0000  -4.0000  15.5000 Du        
  10661 ****        24.0000  -4.0000  15.7500 Du        
  10662 ****        24.0000  -4.0000  16.0000 Du        
  10663 ****        24.0000  -4.0000  16.2500 Du        
  10664 ****        24.0000  -4.0000  16.5000 Du        
  10665 ****        24.0000  -3.7500  15.5000 Du        
  10666 ****        24.0000  -3.7500  15.7500 Du        
  10667 ****        24.0000  -3.7500  16.0000 Du        
  10668 ****        24.0000  -3.7500  16.2500 Du        
  10669 ****        24.0000  -3.7500  16.5000 Du        
  10670 ****        24.0000  -3.5000  15.5000 Du        
  10671 ****        24.0000  -3.5000  15.7500 Du        
  10672 ****        24.0000  -3.5000  16.0000 Du        
  10673 ****        24.0000  -3.5000  16.2500 Du        
  10674 ****        24.0000  -3.5000  16.5000 Du        
  10675 ****        24.0000  -3.5000  16.7500 Du        
  10676 ****        24.0000  -3.2500  15.5000 Du        
  10677 ****        24.0000  -3.2500  15.7500 Du        
  10678 ****        24.0000  -3.2500  16.0000 Du        
  10679 ****        24.0000  -3.2500  16.2500 Du        
  10680 ****        24.0000  -3.2500  16.5000 Du        
  10681 ****        24.0000  -3.2500  16.7500 Du        
  10682 ****        24.0000  -3.0000  15.7500 Du        
  10683 ****        24.0000  -3.0000  16.0000 Du        
  10684 ****        24.0000  -3.0000  16.2500 Du        
  10685 ****        24.2500 -11.7500   0.5000 Du        
  10686 ****        24.2500 -11.7500   0.7500 Du        
  10687 ****        24.2500 -11.7500   1.0000 Du        
  10688 ****        24.2500 -11.7500   1.2500 Du        
  10689 ****        24.2500 -11.7500   1.5000 Du        
  10690 ****        24.2500 -11.7500   1.7500 Du        
  10691 ****        24.2500 -11.7500   2.0000 Du        
  10692 ****        24.2500 -11.7500   2.2500 Du        
  10693 ****        24.2500 -11.7500   2.5000 Du        
  10694 ****        24.2500 -11.7500   2.7500 Du        
  10695 ****        24.2500 -11.5000   0.5000 Du        
  10696 ****        24.2500 -11.5000   0.7500 Du        
  10697 ****        24.2500 -11.5000   1.0000 Du        
  10698 ****        24.2500 -11.5000   1.2500 Du        
  10699 ****        24.2500 -11.5000   1.5000 Du        
  10700 ****        24.2500 -11.5000   1.7500 Du        
  10701 ****        24.2500 -11.5000   2.0000 Du        
  10702 ****        24.2500 -11.5000   2.2500 Du        
  10703 ****        24.2500 -11.5000   2.5000 Du        
  10704 ****        24.2500 -11.5000   2.7500 Du        
  10705 ****        24.2500 -11.2500   0.5000 Du        
  10706 ****        24.2500 -11.2500   0.7500 Du        
  10707 ****        24.2500 -11.2500   1.0000 Du        
  10708 ****        24.2500 -11.2500   1.2500 Du        
  10709 ****        24.2500 -11.2500   1.5000 Du        
  10710 ****        24.2500 -11.2500   1.7500 Du        
  10711 ****        24.2500 -11.2500   2.0000 Du        
  10712 ****        24.2500 -11.2500   2.2500 Du        
  10713 ****        24.2500 -11.2500   2.5000 Du        
  10714 ****        24.2500 -11.2500   2.7500 Du        
  10715 ****        24.2500 -11.2500   3.0000 Du        
  10716 ****        24.2500 -11.0000   0.5000 Du        
  10717 ****        24.2500 -11.0000   0.7500 Du        
  10718 ****        24.2500 -11.0000   1.0000 Du        
  10719 ****        24.2500 -11.0000   1.2500 Du        
  10720 ****        24.2500 -11.0000   1.5000 Du        
  10721 ****        24.2500 -11.0000   1.7500 Du        
  10722 ****        24.2500 -11.0000   2.0000 Du        
  10723 ****        24.2500 -11.0000   2.2500 Du        
  10724 ****        24.2500 -11.0000   2.5000 Du        
  10725 ****        24.2500 -11.0000   2.7500 Du        
  10726 ****        24.2500 -11.0000   3.0000 Du        
  10727 ****        24.2500 -11.0000   3.2500 Du        
  10728 ****        24.2500 -10.7500   0.5000 Du        
  10729 ****        24.2500 -10.7500   0.7500 Du        
  10730 ****        24.2500 -10.7500   1.0000 Du        
  10731 ****        24.2500 -10.7500   1.2500 Du        
  10732 ****        24.2500 -10.7500   1.5000 Du        
  10733 ****        24.2500 -10.7500   1.7500 Du        
  10734 ****        24.2500 -10.7500   2.0000 Du        
  10735 ****        24.2500 -10.7500   2.2500 Du        
  10736 ****        24.2500 -10.7500   2.5000 Du        
  10737 ****        24.2500 -10.7500   2.7500 Du        
  10738 ****        24.2500 -10.7500   3.0000 Du        
  10739 ****        24.2500 -10.7500   3.2500 Du        
  10740 ****        24.2500 -10.5000   0.5000 Du        
  10741 ****        24.2500 -10.5000   0.7500 Du        
  10742 ****        24.2500 -10.5000   1.0000 Du        
  10743 ****        24.2500 -10.5000   1.2500 Du        
  10744 ****        24.2500 -10.5000   1.5000 Du        
  10745 ****        24.2500 -10.5000   1.7500 Du        
  10746 ****        24.2500 -10.5000   2.0000 Du        
  10747 ****        24.2500 -10.5000   2.2500 Du        
  10748 ****        24.2500 -10.2500   0.5000 Du        
  10749 ****        24.2500 -10.2500   0.7500 Du        
  10750 ****        24.2500 -10.2500   1.0000 Du        
  10751 ****        24.2500 -10.2500   1.2500 Du        
  10752 ****        24.2500 -10.2500   1.5000 Du        
  10753 ****        24.2500 -10.2500   1.7500 Du        
  10754 ****        24.2500 -10.2500   2.0000 Du        
  10755 ****        24.2500 -10.2500   2.2500 Du        
  10756 ****        24.2500 -10.0000   0.5000 Du        
  10757 ****        24.2500 -10.0000   0.7500 Du        
  10758 ****        24.2500 -10.0000   1.0000 Du        
  10759 ****        24.2500 -10.0000   1.2500 Du        
  10760 ****        24.2500 -10.0000   1.7500 Du        
  10761 ****        24.2500 -10.0000   2.0000 Du        
  10762 ****        24.2500 -10.0000   2.2500 Du        
  10763 ****        24.2500  -9.7500   0.5000 Du        
  10764 ****        24.2500  -9.7500   0.7500 Du        
  10765 ****        24.2500  -9.7500   1.0000 Du        
  10766 ****        24.2500  -9.7500   1.2500 Du        
  10767 ****        24.2500  -9.7500   4.0000 Du        
  10768 ****        24.2500  -9.2500   1.5000 Du        
  10769 ****        24.2500  -9.2500   1.7500 Du        
  10770 ****        24.2500  -9.2500   2.0000 Du        
  10771 ****        24.2500  -9.2500   3.7500 Du        
  10772 ****        24.2500  -9.0000   1.7500 Du        
  10773 ****        24.2500  -9.0000   2.0000 Du        
  10774 ****        24.2500  -9.0000   2.2500 Du        
  10775 ****        24.2500  -9.0000   3.0000 Du        
  10776 ****        24.2500  -9.0000   3.2500 Du        
  10777 ****        24.2500  -8.7500   2.0000 Du        
  10778 ****        24.2500  -8.5000   3.0000 Du        
  10779 ****        24.2500  -8.5000   3.2500 Du        
  10780 ****        24.2500  -8.2500   2.7500 Du        
  10781 ****        24.2500  -8.2500   3.0000 Du        
  10782 ****        24.2500  -8.2500   3.2500 Du        
  10783 ****        24.2500  -8.0000   2.7500 Du        
  10784 ****        24.2500  -8.0000   3.0000 Du        
  10785 ****        24.2500  -8.0000   3.2500 Du        
  10786 ****        24.2500  -8.0000   3.5000 Du        
  10787 ****        24.2500  -8.0000  10.2500 Du        
  10788 ****        24.2500  -8.0000  10.5000 Du        
  10789 ****        24.2500  -7.7500   3.0000 Du        
  10790 ****        24.2500  -7.7500   3.2500 Du        
  10791 ****        24.2500  -7.7500  10.2500 Du        
  10792 ****        24.2500  -7.7500  10.5000 Du        
  10793 ****        24.2500  -7.7500  10.7500 Du        
  10794 ****        24.2500  -7.5000  10.2500 Du        
  10795 ****        24.2500  -7.5000  10.5000 Du        
  10796 ****        24.2500  -7.5000  10.7500 Du        
  10797 ****        24.2500  -7.2500  10.5000 Du        
  10798 ****        24.2500  -7.2500  10.7500 Du        
  10799 ****        24.2500  -7.0000  10.5000 Du        
  10800 ****        24.2500  -7.0000  10.7500 Du        
  10801 ****        24.2500  -4.5000  15.5000 Du        
  10802 ****        24.2500  -4.5000  15.7500 Du        
  10803 ****        24.2500  -4.5000  16.0000 Du        
  10804 ****        24.2500  -4.5000  16.2500 Du        
  10805 ****        24.2500  -4.2500  15.5000 Du        
  10806 ****        24.2500  -4.2500  15.7500 Du        
  10807 ****        24.2500  -4.2500  16.0000 Du        
  10808 ****        24.2500  -4.2500  16.2500 Du        
  10809 ****        24.2500  -4.0000  15.5000 Du        
  10810 ****        24.2500  -4.0000  15.7500 Du        
  10811 ****        24.2500  -4.0000  16.0000 Du        
  10812 ****        24.2500  -4.0000  16.2500 Du        
  10813 ****        24.2500  -4.0000  16.5000 Du        
  10814 ****        24.2500  -4.0000  16.7500 Du        
  10815 ****        24.2500  -3.7500  15.7500 Du        
  10816 ****        24.2500  -3.7500  16.0000 Du        
  10817 ****        24.2500  -3.7500  16.2500 Du        
  10818 ****        24.2500  -3.7500  16.5000 Du        
  10819 ****        24.2500  -3.5000  15.7500 Du        
  10820 ****        24.2500  -3.5000  16.0000 Du        
  10821 ****        24.2500  -3.5000  16.2500 Du        
  10822 ****        24.2500  -3.5000  16.5000 Du        
  10823 ****        24.2500  -3.5000  16.7500 Du        
  10824 ****        24.2500  -3.2500  15.7500 Du        
  10825 ****        24.2500  -3.2500  16.0000 Du        
  10826 ****        24.2500  -3.2500  16.2500 Du        
  10827 ****        24.2500  -3.0000  16.0000 Du        
  10828 ****        24.2500  -3.0000  16.2500 Du        
  10829 ****        24.5000 -11.5000   2.7500 Du        
  10830 ****        24.5000 -11.5000   3.0000 Du        
  10831 ****        24.5000 -11.2500   0.7500 Du        
  10832 ****        24.5000 -11.2500   1.0000 Du        
  10833 ****        24.5000 -11.2500   1.2500 Du        
  10834 ****        24.5000 -11.2500   1.5000 Du        
  10835 ****        24.5000 -11.2500   1.7500 Du        
  10836 ****        24.5000 -11.2500   2.0000 Du        
  10837 ****        24.5000 -11.2500   2.2500 Du        
  10838 ****        24.5000 -11.2500   2.5000 Du        
  10839 ****        24.5000 -11.2500   2.7500 Du        
  10840 ****        24.5000 -11.2500   3.0000 Du        
  10841 ****        24.5000 -11.2500   3.2500 Du        
  10842 ****        24.5000 -11.0000   0.7500 Du        
  10843 ****        24.5000 -11.0000   1.0000 Du        
  10844 ****        24.5000 -11.0000   1.2500 Du        
  10845 ****        24.5000 -11.0000   1.5000 Du        
  10846 ****        24.5000 -11.0000   1.7500 Du        
  10847 ****        24.5000 -11.0000   2.0000 Du        
  10848 ****        24.5000 -11.0000   2.2500 Du        
  10849 ****        24.5000 -11.0000   2.5000 Du        
  10850 ****        24.5000 -11.0000   2.7500 Du        
  10851 ****        24.5000 -11.0000   3.0000 Du        
  10852 ****        24.5000 -11.0000   3.2500 Du        
  10853 ****        24.5000 -10.7500   0.5000 Du        
  10854 ****        24.5000 -10.7500   0.7500 Du        
  10855 ****        24.5000 -10.7500   1.0000 Du        
  10856 ****        24.5000 -10.7500   1.2500 Du        
  10857 ****        24.5000 -10.7500   1.5000 Du        
  10858 ****        24.5000 -10.7500   1.7500 Du        
  10859 ****        24.5000 -10.7500   2.0000 Du        
  10860 ****        24.5000 -10.7500   2.2500 Du        
  10861 ****        24.5000 -10.7500   2.5000 Du        
  10862 ****        24.5000 -10.7500   2.7500 Du        
  10863 ****        24.5000 -10.7500   3.0000 Du        
  10864 ****        24.5000 -10.7500   3.2500 Du        
  10865 ****        24.5000 -10.5000   0.5000 Du        
  10866 ****        24.5000 -10.5000   0.7500 Du        
  10867 ****        24.5000 -10.5000   1.0000 Du        
  10868 ****        24.5000 -10.5000   1.2500 Du        
  10869 ****        24.5000 -10.5000   1.5000 Du        
  10870 ****        24.5000 -10.5000   1.7500 Du        
  10871 ****        24.5000 -10.5000   2.0000 Du        
  10872 ****        24.5000 -10.5000   2.2500 Du        
  10873 ****        24.5000 -10.5000   2.5000 Du        
  10874 ****        24.5000 -10.5000   2.7500 Du        
  10875 ****        24.5000 -10.5000   3.0000 Du        
  10876 ****        24.5000 -10.5000   3.2500 Du        
  10877 ****        24.5000 -10.2500   0.5000 Du        
  10878 ****        24.5000 -10.2500   0.7500 Du        
  10879 ****        24.5000 -10.2500   1.0000 Du        
  10880 ****        24.5000 -10.2500   1.2500 Du        
  10881 ****        24.5000 -10.2500   1.5000 Du        
  10882 ****        24.5000 -10.2500   1.7500 Du        
  10883 ****        24.5000 -10.2500   2.0000 Du        
  10884 ****        24.5000 -10.2500   2.2500 Du        
  10885 ****        24.5000 -10.2500   2.5000 Du        
  10886 ****        24.5000 -10.2500   2.7500 Du        
  10887 ****        24.5000 -10.2500   3.0000 Du        
  10888 ****        24.5000 -10.2500   3.2500 Du        
  10889 ****        24.5000 -10.0000   0.5000 Du        
  10890 ****        24.5000 -10.0000   0.7500 Du        
  10891 ****        24.5000 -10.0000   1.0000 Du        
  10892 ****        24.5000 -10.0000   1.2500 Du        
  10893 ****        24.5000 -10.0000   1.5000 Du        
  10894 ****        24.5000 -10.0000   1.7500 Du        
  10895 ****        24.5000 -10.0000   2.0000 Du        
  10896 ****        24.5000 -10.0000   2.2500 Du        
  10897 ****        24.5000 -10.0000   2.5000 Du        
  10898 ****        24.5000 -10.0000   2.7500 Du        
  10899 ****        24.5000 -10.0000   3.0000 Du        
  10900 ****        24.5000 -10.0000   3.2500 Du        
  10901 ****        24.5000 -10.0000   3.7500 Du        
  10902 ****        24.5000  -9.7500   0.5000 Du        
  10903 ****        24.5000  -9.7500   0.7500 Du        
  10904 ****        24.5000  -9.7500   1.0000 Du        
  10905 ****        24.5000  -9.7500   1.2500 Du        
  10906 ****        24.5000  -9.7500   1.5000 Du        
  10907 ****        24.5000  -9.7500   1.7500 Du        
  10908 ****        24.5000  -9.7500   2.7500 Du        
  10909 ****        24.5000  -9.7500   3.0000 Du        
  10910 ****        24.5000  -9.7500   3.2500 Du        
  10911 ****        24.5000  -9.5000   0.7500 Du        
  10912 ****        24.5000  -9.5000   1.0000 Du        
  10913 ****        24.5000  -9.5000   1.5000 Du        
  10914 ****        24.5000  -9.2500   0.7500 Du        
  10915 ****        24.5000  -9.2500   1.0000 Du        
  10916 ****        24.5000  -9.2500   1.2500 Du        
  10917 ****        24.5000  -9.2500   1.5000 Du        
  10918 ****        24.5000  -9.2500   1.7500 Du        
  10919 ****        24.5000  -9.2500   3.7500 Du        
  10920 ****        24.5000  -9.0000   0.7500 Du        
  10921 ****        24.5000  -9.0000   1.0000 Du        
  10922 ****        24.5000  -9.0000   1.2500 Du        
  10923 ****        24.5000  -9.0000   1.5000 Du        
  10924 ****        24.5000  -9.0000   1.7500 Du        
  10925 ****        24.5000  -9.0000   2.0000 Du        
  10926 ****        24.5000  -9.0000   3.0000 Du        
  10927 ****        24.5000  -9.0000   3.7500 Du        
  10928 ****        24.5000  -9.0000   4.0000 Du        
  10929 ****        24.5000  -8.7500   1.2500 Du        
  10930 ****        24.5000  -8.7500   1.5000 Du        
  10931 ****        24.5000  -8.7500   1.7500 Du        
  10932 ****        24.5000  -8.7500   2.0000 Du        
  10933 ****        24.5000  -8.7500   2.7500 Du        
  10934 ****        24.5000  -8.7500   3.0000 Du        
  10935 ****        24.5000  -8.7500   3.2500 Du        
  10936 ****        24.5000  -8.7500   4.0000 Du        
  10937 ****        24.5000  -8.5000   1.2500 Du        
  10938 ****        24.5000  -8.2500   1.7500 Du        
  10939 ****        24.5000  -8.2500   3.2500 Du        
  10940 ****        24.5000  -8.0000   2.7500 Du        
  10941 ****        24.5000  -8.0000   3.0000 Du        
  10942 ****        24.5000  -8.0000   3.2500 Du        
  10943 ****        24.5000  -8.0000  10.2500 Du        
  10944 ****        24.5000  -8.0000  10.5000 Du        
  10945 ****        24.5000  -8.0000  10.7500 Du        
  10946 ****        24.5000  -7.7500   3.2500 Du        
  10947 ****        24.5000  -7.7500  10.2500 Du        
  10948 ****        24.5000  -7.7500  10.5000 Du        
  10949 ****        24.5000  -7.7500  10.7500 Du        
  10950 ****        24.5000  -7.5000  10.2500 Du        
  10951 ****        24.5000  -7.5000  10.5000 Du        
  10952 ****        24.5000  -7.5000  10.7500 Du        
  10953 ****        24.5000  -7.2500  10.5000 Du        
  10954 ****        24.5000  -7.2500  10.7500 Du        
  10955 ****        24.5000  -4.7500  16.0000 Du        
  10956 ****        24.5000  -4.7500  16.2500 Du        
  10957 ****        24.5000  -4.5000  15.7500 Du        
  10958 ****        24.5000  -4.5000  16.0000 Du        
  10959 ****        24.5000  -4.5000  16.2500 Du        
  10960 ****        24.5000  -4.2500  15.5000 Du        
  10961 ****        24.5000  -4.2500  15.7500 Du        
  10962 ****        24.5000  -4.2500  16.0000 Du        
  10963 ****        24.5000  -4.2500  16.2500 Du        
  10964 ****        24.5000  -4.2500  16.5000 Du        
  10965 ****        24.5000  -4.2500  16.7500 Du        
  10966 ****        24.5000  -4.0000  15.7500 Du        
  10967 ****        24.5000  -4.0000  16.0000 Du        
  10968 ****        24.5000  -4.0000  16.2500 Du        
  10969 ****        24.5000  -4.0000  16.5000 Du        
  10970 ****        24.5000  -4.0000  16.7500 Du        
  10971 ****        24.5000  -4.0000  17.0000 Du        
  10972 ****        24.5000  -3.7500  15.7500 Du        
  10973 ****        24.5000  -3.7500  16.0000 Du        
  10974 ****        24.5000  -3.7500  16.2500 Du        
  10975 ****        24.5000  -3.7500  16.5000 Du        
  10976 ****        24.5000  -3.7500  16.7500 Du        
  10977 ****        24.5000  -3.5000  15.7500 Du        
  10978 ****        24.5000  -3.5000  16.0000 Du        
  10979 ****        24.5000  -3.5000  16.2500 Du        
  10980 ****        24.5000  -3.5000  16.5000 Du        
  10981 ****        24.5000  -3.2500  16.0000 Du        
  10982 ****        24.5000  -3.2500  16.2500 Du        
  10983 ****        24.7500 -11.2500   2.7500 Du        
  10984 ****        24.7500 -11.2500   3.0000 Du        
  10985 ****        24.7500 -11.0000   1.0000 Du        
  10986 ****        24.7500 -11.0000   1.2500 Du        
  10987 ****        24.7500 -11.0000   1.5000 Du        
  10988 ****        24.7500 -11.0000   1.7500 Du        
  10989 ****        24.7500 -11.0000   2.0000 Du        
  10990 ****        24.7500 -11.0000   2.2500 Du        
  10991 ****        24.7500 -11.0000   2.5000 Du        
  10992 ****        24.7500 -11.0000   2.7500 Du        
  10993 ****        24.7500 -11.0000   3.0000 Du        
  10994 ****        24.7500 -11.0000   3.2500 Du        
  10995 ****        24.7500 -10.7500   0.7500 Du        
  10996 ****        24.7500 -10.7500   1.0000 Du        
  10997 ****        24.7500 -10.7500   1.2500 Du        
  10998 ****        24.7500 -10.7500   1.5000 Du        
  10999 ****        24.7500 -10.7500   1.7500 Du        
  11000 ****        24.7500 -10.7500   2.0000 Du        
  11001 ****        24.7500 -10.7500   2.2500 Du        
  11002 ****        24.7500 -10.7500   2.5000 Du        
  11003 ****        24.7500 -10.7500   2.7500 Du        
  11004 ****        24.7500 -10.7500   3.0000 Du        
  11005 ****        24.7500 -10.7500   3.2500 Du        
  11006 ****        24.7500 -10.5000   0.7500 Du        
  11007 ****        24.7500 -10.5000   1.0000 Du        
  11008 ****        24.7500 -10.5000   1.2500 Du        
  11009 ****        24.7500 -10.5000   1.5000 Du        
  11010 ****        24.7500 -10.5000   1.7500 Du        
  11011 ****        24.7500 -10.5000   2.0000 Du        
  11012 ****        24.7500 -10.5000   2.2500 Du        
  11013 ****        24.7500 -10.5000   2.5000 Du        
  11014 ****        24.7500 -10.5000   2.7500 Du        
  11015 ****        24.7500 -10.5000   3.0000 Du        
  11016 ****        24.7500 -10.5000   3.2500 Du        
  11017 ****        24.7500 -10.2500   0.7500 Du        
  11018 ****        24.7500 -10.2500   1.0000 Du        
  11019 ****        24.7500 -10.2500   1.2500 Du        
  11020 ****        24.7500 -10.2500   1.5000 Du        
  11021 ****        24.7500 -10.2500   1.7500 Du        
  11022 ****        24.7500 -10.2500   2.0000 Du        
  11023 ****        24.7500 -10.2500   2.2500 Du        
  11024 ****        24.7500 -10.2500   2.5000 Du        
  11025 ****        24.7500 -10.2500   2.7500 Du        
  11026 ****        24.7500 -10.2500   3.0000 Du        
  11027 ****        24.7500 -10.2500   3.2500 Du        
  11028 ****        24.7500 -10.0000   0.5000 Du        
  11029 ****        24.7500 -10.0000   0.7500 Du        
  11030 ****        24.7500 -10.0000   1.0000 Du        
  11031 ****        24.7500 -10.0000   1.2500 Du        
  11032 ****        24.7500 -10.0000   1.5000 Du        
  11033 ****        24.7500 -10.0000   1.7500 Du        
  11034 ****        24.7500 -10.0000   2.0000 Du        
  11035 ****        24.7500 -10.0000   2.2500 Du        
  11036 ****        24.7500 -10.0000   2.5000 Du        
  11037 ****        24.7500 -10.0000   2.7500 Du        
  11038 ****        24.7500 -10.0000   3.0000 Du        
  11039 ****        24.7500 -10.0000   3.2500 Du        
  11040 ****        24.7500 -10.0000   3.5000 Du        
  11041 ****        24.7500 -10.0000   3.7500 Du        
  11042 ****        24.7500  -9.7500   0.2500 Du        
  11043 ****        24.7500  -9.7500   0.5000 Du        
  11044 ****        24.7500  -9.7500   0.7500 Du        
  11045 ****        24.7500  -9.7500   1.0000 Du        
  11046 ****        24.7500  -9.7500   1.2500 Du        
  11047 ****        24.7500  -9.7500   1.5000 Du        
  11048 ****        24.7500  -9.7500   1.7500 Du        
  11049 ****        24.7500  -9.7500   2.0000 Du        
  11050 ****        24.7500  -9.7500   2.2500 Du        
  11051 ****        24.7500  -9.7500   2.5000 Du        
  11052 ****        24.7500  -9.7500   2.7500 Du        
  11053 ****        24.7500  -9.7500   3.0000 Du        
  11054 ****        24.7500  -9.7500   3.2500 Du        
  11055 ****        24.7500  -9.7500   3.7500 Du        
  11056 ****        24.7500  -9.5000   0.5000 Du        
  11057 ****        24.7500  -9.5000   0.7500 Du        
  11058 ****        24.7500  -9.5000   1.0000 Du        
  11059 ****        24.7500  -9.5000   1.2500 Du        
  11060 ****        24.7500  -9.5000   1.5000 Du        
  11061 ****        24.7500  -9.5000   1.7500 Du        
  11062 ****        24.7500  -9.2500   0.5000 Du        
  11063 ****        24.7500  -9.2500   0.7500 Du        
  11064 ****        24.7500  -9.2500   1.0000 Du        
  11065 ****        24.7500  -9.2500   1.2500 Du        
  11066 ****        24.7500  -9.2500   1.5000 Du        
  11067 ****        24.7500  -9.2500   1.7500 Du        
  11068 ****        24.7500  -9.2500   2.0000 Du        
  11069 ****        24.7500  -9.2500   3.5000 Du        
  11070 ****        24.7500  -9.2500   3.7500 Du        
  11071 ****        24.7500  -9.2500   4.0000 Du        
  11072 ****        24.7500  -9.0000   0.7500 Du        
  11073 ****        24.7500  -9.0000   1.0000 Du        
  11074 ****        24.7500  -9.0000   1.2500 Du        
  11075 ****        24.7500  -9.0000   1.5000 Du        
  11076 ****        24.7500  -9.0000   1.7500 Du        
  11077 ****        24.7500  -9.0000   2.0000 Du        
  11078 ****        24.7500  -9.0000   2.2500 Du        
  11079 ****        24.7500  -9.0000   3.0000 Du        
  11080 ****        24.7500  -9.0000   3.2500 Du        
  11081 ****        24.7500  -9.0000   3.7500 Du        
  11082 ****        24.7500  -9.0000   4.0000 Du        
  11083 ****        24.7500  -9.0000   4.2500 Du        
  11084 ****        24.7500  -8.7500   1.0000 Du        
  11085 ****        24.7500  -8.7500   1.2500 Du        
  11086 ****        24.7500  -8.7500   1.5000 Du        
  11087 ****        24.7500  -8.7500   1.7500 Du        
  11088 ****        24.7500  -8.7500   2.0000 Du        
  11089 ****        24.7500  -8.7500   2.2500 Du        
  11090 ****        24.7500  -8.7500   3.0000 Du        
  11091 ****        24.7500  -8.7500   3.2500 Du        
  11092 ****        24.7500  -8.7500   3.7500 Du        
  11093 ****        24.7500  -8.7500   4.0000 Du        
  11094 ****        24.7500  -8.5000   1.2500 Du        
  11095 ****        24.7500  -8.5000   1.5000 Du        
  11096 ****        24.7500  -8.5000   1.7500 Du        
  11097 ****        24.7500  -8.5000   2.0000 Du        
  11098 ****        24.7500  -8.2500   1.5000 Du        
  11099 ****        24.7500  -8.2500   1.7500 Du        
  11100 ****        24.7500  -8.2500   2.0000 Du        
  11101 ****        24.7500  -8.2500   2.2500 Du        
  11102 ****        24.7500  -8.2500   2.5000 Du        
  11103 ****        24.7500  -8.2500   2.7500 Du        
  11104 ****        24.7500  -8.2500   3.0000 Du        
  11105 ****        24.7500  -8.2500   3.2500 Du        
  11106 ****        24.7500  -8.2500  10.2500 Du        
  11107 ****        24.7500  -8.2500  10.5000 Du        
  11108 ****        24.7500  -8.0000   2.0000 Du        
  11109 ****        24.7500  -8.0000   2.7500 Du        
  11110 ****        24.7500  -8.0000   3.0000 Du        
  11111 ****        24.7500  -8.0000   3.2500 Du        
  11112 ****        24.7500  -8.0000  10.0000 Du        
  11113 ****        24.7500  -8.0000  10.2500 Du        
  11114 ****        24.7500  -8.0000  10.5000 Du        
  11115 ****        24.7500  -8.0000  10.7500 Du        
  11116 ****        24.7500  -7.7500  10.2500 Du        
  11117 ****        24.7500  -7.7500  10.5000 Du        
  11118 ****        24.7500  -7.7500  10.7500 Du        
  11119 ****        24.7500  -7.5000  10.2500 Du        
  11120 ****        24.7500  -7.5000  10.5000 Du        
  11121 ****        24.7500  -7.5000  10.7500 Du        
  11122 ****        24.7500  -7.5000  11.0000 Du        
  11123 ****        24.7500  -7.2500  10.5000 Du        
  11124 ****        24.7500  -7.2500  10.7500 Du        
  11125 ****        24.7500  -4.7500  16.0000 Du        
  11126 ****        24.7500  -4.7500  16.2500 Du        
  11127 ****        24.7500  -4.5000  15.7500 Du        
  11128 ****        24.7500  -4.5000  16.0000 Du        
  11129 ****        24.7500  -4.5000  16.2500 Du        
  11130 ****        24.7500  -4.5000  16.5000 Du        
  11131 ****        24.7500  -4.2500  15.7500 Du        
  11132 ****        24.7500  -4.2500  16.0000 Du        
  11133 ****        24.7500  -4.2500  16.2500 Du        
  11134 ****        24.7500  -4.2500  16.5000 Du        
  11135 ****        24.7500  -4.2500  16.7500 Du        
  11136 ****        24.7500  -4.2500  17.0000 Du        
  11137 ****        24.7500  -4.0000  15.7500 Du        
  11138 ****        24.7500  -4.0000  16.0000 Du        
  11139 ****        24.7500  -4.0000  16.2500 Du        
  11140 ****        24.7500  -4.0000  16.5000 Du        
  11141 ****        24.7500  -4.0000  16.7500 Du        
  11142 ****        24.7500  -4.0000  17.0000 Du        
  11143 ****        24.7500  -3.7500  16.0000 Du        
  11144 ****        24.7500  -3.7500  16.2500 Du        
  11145 ****        24.7500  -3.7500  16.5000 Du        
  11146 ****        24.7500  -3.7500  16.7500 Du        
  11147 ****        24.7500  -3.5000  16.0000 Du        
  11148 ****        24.7500  -3.5000  16.2500 Du        
  11149 ****        24.7500  -3.5000  16.5000 Du        
  11150 ****        25.0000 -11.0000   2.7500 Du        
  11151 ****        25.0000 -11.0000   3.0000 Du        
  11152 ****        25.0000 -11.0000   3.2500 Du        
  11153 ****        25.0000 -10.7500   1.0000 Du        
  11154 ****        25.0000 -10.7500   1.2500 Du        
  11155 ****        25.0000 -10.7500   1.5000 Du        
  11156 ****        25.0000 -10.7500   1.7500 Du        
  11157 ****        25.0000 -10.7500   2.0000 Du        
  11158 ****        25.0000 -10.7500   2.2500 Du        
  11159 ****        25.0000 -10.7500   2.5000 Du        
  11160 ****        25.0000 -10.7500   2.7500 Du        
  11161 ****        25.0000 -10.7500   3.0000 Du        
  11162 ****        25.0000 -10.7500   3.2500 Du        
  11163 ****        25.0000 -10.5000   1.0000 Du        
  11164 ****        25.0000 -10.5000   1.2500 Du        
  11165 ****        25.0000 -10.5000   1.5000 Du        
  11166 ****        25.0000 -10.5000   1.7500 Du        
  11167 ****        25.0000 -10.5000   2.0000 Du        
  11168 ****        25.0000 -10.5000   2.2500 Du        
  11169 ****        25.0000 -10.5000   2.5000 Du        
  11170 ****        25.0000 -10.5000   2.7500 Du        
  11171 ****        25.0000 -10.5000   3.0000 Du        
  11172 ****        25.0000 -10.5000   3.2500 Du        
  11173 ****        25.0000 -10.2500   0.7500 Du        
  11174 ****        25.0000 -10.2500   1.0000 Du        
  11175 ****        25.0000 -10.2500   1.2500 Du        
  11176 ****        25.0000 -10.2500   1.5000 Du        
  11177 ****        25.0000 -10.2500   1.7500 Du        
  11178 ****        25.0000 -10.2500   2.0000 Du        
  11179 ****        25.0000 -10.2500   2.2500 Du        
  11180 ****        25.0000 -10.2500   2.5000 Du        
  11181 ****        25.0000 -10.2500   2.7500 Du        
  11182 ****        25.0000 -10.2500   3.0000 Du        
  11183 ****        25.0000 -10.2500   3.2500 Du        
  11184 ****        25.0000 -10.0000   0.5000 Du        
  11185 ****        25.0000 -10.0000   0.7500 Du        
  11186 ****        25.0000 -10.0000   1.0000 Du        
  11187 ****        25.0000 -10.0000   1.2500 Du        
  11188 ****        25.0000 -10.0000   1.5000 Du        
  11189 ****        25.0000 -10.0000   1.7500 Du        
  11190 ****        25.0000 -10.0000   2.0000 Du        
  11191 ****        25.0000 -10.0000   2.2500 Du        
  11192 ****        25.0000 -10.0000   2.5000 Du        
  11193 ****        25.0000 -10.0000   2.7500 Du        
  11194 ****        25.0000 -10.0000   3.0000 Du        
  11195 ****        25.0000 -10.0000   3.2500 Du        
  11196 ****        25.0000 -10.0000   3.5000 Du        
  11197 ****        25.0000 -10.0000   3.7500 Du        
  11198 ****        25.0000  -9.7500   0.2500 Du        
  11199 ****        25.0000  -9.7500   0.5000 Du        
  11200 ****        25.0000  -9.7500   0.7500 Du        
  11201 ****        25.0000  -9.7500   1.0000 Du        
  11202 ****        25.0000  -9.7500   1.2500 Du        
  11203 ****        25.0000  -9.7500   1.5000 Du        
  11204 ****        25.0000  -9.7500   1.7500 Du        
  11205 ****        25.0000  -9.7500   2.2500 Du        
  11206 ****        25.0000  -9.7500   2.5000 Du        
  11207 ****        25.0000  -9.7500   2.7500 Du        
  11208 ****        25.0000  -9.7500   3.0000 Du        
  11209 ****        25.0000  -9.7500   3.2500 Du        
  11210 ****        25.0000  -9.5000   0.5000 Du        
  11211 ****        25.0000  -9.5000   0.7500 Du        
  11212 ****        25.0000  -9.5000   1.0000 Du        
  11213 ****        25.0000  -9.5000   1.2500 Du        
  11214 ****        25.0000  -9.5000   1.5000 Du        
  11215 ****        25.0000  -9.5000   1.7500 Du        
  11216 ****        25.0000  -9.2500   0.5000 Du        
  11217 ****        25.0000  -9.2500   0.7500 Du        
  11218 ****        25.0000  -9.2500   1.0000 Du        
  11219 ****        25.0000  -9.2500   1.2500 Du        
  11220 ****        25.0000  -9.2500   1.5000 Du        
  11221 ****        25.0000  -9.2500   1.7500 Du        
  11222 ****        25.0000  -9.2500   2.0000 Du        
  11223 ****        25.0000  -9.2500   2.2500 Du        
  11224 ****        25.0000  -9.2500   3.5000 Du        
  11225 ****        25.0000  -9.2500   3.7500 Du        
  11226 ****        25.0000  -9.2500   4.0000 Du        
  11227 ****        25.0000  -9.0000   0.7500 Du        
  11228 ****        25.0000  -9.0000   1.0000 Du        
  11229 ****        25.0000  -9.0000   1.2500 Du        
  11230 ****        25.0000  -9.0000   1.5000 Du        
  11231 ****        25.0000  -9.0000   1.7500 Du        
  11232 ****        25.0000  -9.0000   2.0000 Du        
  11233 ****        25.0000  -9.0000   2.2500 Du        
  11234 ****        25.0000  -9.0000   3.0000 Du        
  11235 ****        25.0000  -9.0000   3.2500 Du        
  11236 ****        25.0000  -9.0000   3.5000 Du        
  11237 ****        25.0000  -9.0000   3.7500 Du        
  11238 ****        25.0000  -9.0000   4.0000 Du        
  11239 ****        25.0000  -8.7500   1.0000 Du        
  11240 ****        25.0000  -8.7500   1.2500 Du        
  11241 ****        25.0000  -8.7500   1.5000 Du        
  11242 ****        25.0000  -8.7500   1.7500 Du        
  11243 ****        25.0000  -8.7500   2.0000 Du        
  11244 ****        25.0000  -8.7500   2.2500 Du        
  11245 ****        25.0000  -8.7500   2.7500 Du        
  11246 ****        25.0000  -8.7500   3.0000 Du        
  11247 ****        25.0000  -8.7500   3.2500 Du        
  11248 ****        25.0000  -8.7500   3.7500 Du        
  11249 ****        25.0000  -8.7500   4.0000 Du        
  11250 ****        25.0000  -8.5000   1.2500 Du        
  11251 ****        25.0000  -8.5000   1.5000 Du        
  11252 ****        25.0000  -8.5000   1.7500 Du        
  11253 ****        25.0000  -8.5000   2.0000 Du        
  11254 ****        25.0000  -8.5000   2.2500 Du        
  11255 ****        25.0000  -8.5000   2.5000 Du        
  11256 ****        25.0000  -8.5000   2.7500 Du        
  11257 ****        25.0000  -8.5000  10.2500 Du        
  11258 ****        25.0000  -8.2500   1.5000 Du        
  11259 ****        25.0000  -8.2500   1.7500 Du        
  11260 ****        25.0000  -8.2500   2.0000 Du        
  11261 ****        25.0000  -8.2500   2.2500 Du        
  11262 ****        25.0000  -8.2500   2.5000 Du        
  11263 ****        25.0000  -8.2500   2.7500 Du        
  11264 ****        25.0000  -8.2500   3.0000 Du        
  11265 ****        25.0000  -8.2500   3.2500 Du        
  11266 ****        25.0000  -8.2500   3.5000 Du        
  11267 ****        25.0000  -8.2500   3.7500 Du        
  11268 ****        25.0000  -8.2500  10.0000 Du        
  11269 ****        25.0000  -8.2500  10.2500 Du        
  11270 ****        25.0000  -8.2500  10.5000 Du        
  11271 ****        25.0000  -8.2500  10.7500 Du        
  11272 ****        25.0000  -8.0000   1.7500 Du        
  11273 ****        25.0000  -8.0000   2.0000 Du        
  11274 ****        25.0000  -8.0000   2.2500 Du        
  11275 ****        25.0000  -8.0000   2.5000 Du        
  11276 ****        25.0000  -8.0000   2.7500 Du        
  11277 ****        25.0000  -8.0000   3.0000 Du        
  11278 ****        25.0000  -8.0000   3.2500 Du        
  11279 ****        25.0000  -8.0000  10.0000 Du        
  11280 ****        25.0000  -8.0000  10.2500 Du        
  11281 ****        25.0000  -8.0000  10.5000 Du        
  11282 ****        25.0000  -8.0000  10.7500 Du        
  11283 ****        25.0000  -7.7500   3.0000 Du        
  11284 ****        25.0000  -7.7500  10.2500 Du        
  11285 ****        25.0000  -7.7500  10.5000 Du        
  11286 ****        25.0000  -7.7500  10.7500 Du        
  11287 ****        25.0000  -7.7500  11.0000 Du        
  11288 ****        25.0000  -7.5000  10.5000 Du        
  11289 ****        25.0000  -7.5000  10.7500 Du        
  11290 ****        25.0000  -7.5000  11.0000 Du        
  11291 ****        25.0000  -7.2500  10.5000 Du        
  11292 ****        25.0000  -7.2500  10.7500 Du        
  11293 ****        25.0000  -4.7500  16.2500 Du        
  11294 ****        25.0000  -4.5000  16.0000 Du        
  11295 ****        25.0000  -4.5000  16.2500 Du        
  11296 ****        25.0000  -4.5000  16.5000 Du        
  11297 ****        25.0000  -4.5000  16.7500 Du        
  11298 ****        25.0000  -4.2500  16.0000 Du        
  11299 ****        25.0000  -4.2500  16.2500 Du        
  11300 ****        25.0000  -4.2500  16.5000 Du        
  11301 ****        25.0000  -4.2500  16.7500 Du        
  11302 ****        25.0000  -4.2500  17.0000 Du        
  11303 ****        25.0000  -4.0000  16.0000 Du        
  11304 ****        25.0000  -4.0000  16.2500 Du        
  11305 ****        25.0000  -4.0000  16.5000 Du        
  11306 ****        25.0000  -4.0000  16.7500 Du        
  11307 ****        25.0000  -4.0000  17.0000 Du        
  11308 ****        25.0000  -3.7500  16.0000 Du        
  11309 ****        25.0000  -3.7500  16.2500 Du        
  11310 ****        25.0000  -3.7500  16.5000 Du        
  11311 ****        25.0000  -3.7500  16.7500 Du        
  11312 ****        25.0000  -3.5000  16.2500 Du        
  11313 ****        25.2500 -10.7500   3.0000 Du        
  11314 ****        25.2500 -10.7500   3.2500 Du        
  11315 ****        25.2500 -10.5000   2.7500 Du        
  11316 ****        25.2500 -10.5000   3.0000 Du        
  11317 ****        25.2500 -10.5000   3.2500 Du        
  11318 ****        25.2500 -10.2500   1.0000 Du        
  11319 ****        25.2500 -10.2500   1.2500 Du        
  11320 ****        25.2500 -10.2500   1.5000 Du        
  11321 ****        25.2500 -10.2500   1.7500 Du        
  11322 ****        25.2500 -10.2500   2.0000 Du        
  11323 ****        25.2500 -10.2500   2.2500 Du        
  11324 ****        25.2500 -10.2500   2.5000 Du        
  11325 ****        25.2500 -10.2500   2.7500 Du        
  11326 ****        25.2500 -10.2500   3.0000 Du        
  11327 ****        25.2500 -10.2500   3.2500 Du        
  11328 ****        25.2500 -10.2500   3.5000 Du        
  11329 ****        25.2500 -10.0000   0.5000 Du        
  11330 ****        25.2500 -10.0000   0.7500 Du        
  11331 ****        25.2500 -10.0000   1.0000 Du        
  11332 ****        25.2500 -10.0000   1.2500 Du        
  11333 ****        25.2500 -10.0000   1.5000 Du        
  11334 ****        25.2500 -10.0000   1.7500 Du        
  11335 ****        25.2500 -10.0000   2.0000 Du        
  11336 ****        25.2500 -10.0000   2.2500 Du        
  11337 ****        25.2500 -10.0000   2.5000 Du        
  11338 ****        25.2500 -10.0000   2.7500 Du        
  11339 ****        25.2500 -10.0000   3.0000 Du        
  11340 ****        25.2500 -10.0000   3.2500 Du        
  11341 ****        25.2500 -10.0000   3.5000 Du        
  11342 ****        25.2500 -10.0000   3.7500 Du        
  11343 ****        25.2500  -9.7500   0.5000 Du        
  11344 ****        25.2500  -9.7500   0.7500 Du        
  11345 ****        25.2500  -9.7500   1.0000 Du        
  11346 ****        25.2500  -9.7500   1.2500 Du        
  11347 ****        25.2500  -9.7500   1.5000 Du        
  11348 ****        25.2500  -9.7500   1.7500 Du        
  11349 ****        25.2500  -9.7500   2.5000 Du        
  11350 ****        25.2500  -9.7500   2.7500 Du        
  11351 ****        25.2500  -9.7500   3.0000 Du        
  11352 ****        25.2500  -9.7500   3.2500 Du        
  11353 ****        25.2500  -9.7500   3.5000 Du        
  11354 ****        25.2500  -9.7500   3.7500 Du        
  11355 ****        25.2500  -9.5000   0.2500 Du        
  11356 ****        25.2500  -9.5000   0.5000 Du        
  11357 ****        25.2500  -9.5000   0.7500 Du        
  11358 ****        25.2500  -9.5000   1.0000 Du        
  11359 ****        25.2500  -9.5000   1.2500 Du        
  11360 ****        25.2500  -9.5000   1.5000 Du        
  11361 ****        25.2500  -9.5000   1.7500 Du        
  11362 ****        25.2500  -9.5000   2.0000 Du        
  11363 ****        25.2500  -9.2500   0.5000 Du        
  11364 ****        25.2500  -9.2500   0.7500 Du        
  11365 ****        25.2500  -9.2500   1.0000 Du        
  11366 ****        25.2500  -9.2500   1.2500 Du        
  11367 ****        25.2500  -9.2500   1.5000 Du        
  11368 ****        25.2500  -9.2500   1.7500 Du        
  11369 ****        25.2500  -9.2500   2.0000 Du        
  11370 ****        25.2500  -9.2500   2.2500 Du        
  11371 ****        25.2500  -9.2500   3.5000 Du        
  11372 ****        25.2500  -9.2500   3.7500 Du        
  11373 ****        25.2500  -9.2500   4.0000 Du        
  11374 ****        25.2500  -9.0000   0.7500 Du        
  11375 ****        25.2500  -9.0000   1.0000 Du        
  11376 ****        25.2500  -9.0000   1.2500 Du        
  11377 ****        25.2500  -9.0000   1.5000 Du        
  11378 ****        25.2500  -9.0000   1.7500 Du        
  11379 ****        25.2500  -9.0000   2.0000 Du        
  11380 ****        25.2500  -9.0000   2.2500 Du        
  11381 ****        25.2500  -9.0000   3.0000 Du        
  11382 ****        25.2500  -9.0000   3.2500 Du        
  11383 ****        25.2500  -9.0000   3.5000 Du        
  11384 ****        25.2500  -9.0000   3.7500 Du        
  11385 ****        25.2500  -9.0000   4.0000 Du        
  11386 ****        25.2500  -8.7500   1.0000 Du        
  11387 ****        25.2500  -8.7500   1.2500 Du        
  11388 ****        25.2500  -8.7500   1.5000 Du        
  11389 ****        25.2500  -8.7500   1.7500 Du        
  11390 ****        25.2500  -8.7500   2.0000 Du        
  11391 ****        25.2500  -8.7500   2.2500 Du        
  11392 ****        25.2500  -8.7500   2.5000 Du        
  11393 ****        25.2500  -8.7500   2.7500 Du        
  11394 ****        25.2500  -8.7500   3.0000 Du        
  11395 ****        25.2500  -8.7500   3.2500 Du        
  11396 ****        25.2500  -8.7500   3.7500 Du        
  11397 ****        25.2500  -8.5000   1.0000 Du        
  11398 ****        25.2500  -8.5000   1.2500 Du        
  11399 ****        25.2500  -8.5000   1.5000 Du        
  11400 ****        25.2500  -8.5000   1.7500 Du        
  11401 ****        25.2500  -8.5000   2.0000 Du        
  11402 ****        25.2500  -8.5000   2.2500 Du        
  11403 ****        25.2500  -8.5000   2.5000 Du        
  11404 ****        25.2500  -8.5000   2.7500 Du        
  11405 ****        25.2500  -8.5000   3.0000 Du        
  11406 ****        25.2500  -8.5000  10.0000 Du        
  11407 ****        25.2500  -8.5000  10.2500 Du        
  11408 ****        25.2500  -8.5000  10.5000 Du        
  11409 ****        25.2500  -8.2500   1.2500 Du        
  11410 ****        25.2500  -8.2500   1.5000 Du        
  11411 ****        25.2500  -8.2500   1.7500 Du        
  11412 ****        25.2500  -8.2500   2.0000 Du        
  11413 ****        25.2500  -8.2500   2.2500 Du        
  11414 ****        25.2500  -8.2500   2.5000 Du        
  11415 ****        25.2500  -8.2500   2.7500 Du        
  11416 ****        25.2500  -8.2500   3.0000 Du        
  11417 ****        25.2500  -8.2500   3.2500 Du        
  11418 ****        25.2500  -8.2500   3.5000 Du        
  11419 ****        25.2500  -8.2500   3.7500 Du        
  11420 ****        25.2500  -8.2500  10.0000 Du        
  11421 ****        25.2500  -8.2500  10.2500 Du        
  11422 ****        25.2500  -8.2500  10.5000 Du        
  11423 ****        25.2500  -8.2500  10.7500 Du        
  11424 ****        25.2500  -8.0000   1.7500 Du        
  11425 ****        25.2500  -8.0000   2.0000 Du        
  11426 ****        25.2500  -8.0000   2.2500 Du        
  11427 ****        25.2500  -8.0000   2.5000 Du        
  11428 ****        25.2500  -8.0000   2.7500 Du        
  11429 ****        25.2500  -8.0000   3.0000 Du        
  11430 ****        25.2500  -8.0000   3.2500 Du        
  11431 ****        25.2500  -8.0000   3.5000 Du        
  11432 ****        25.2500  -8.0000  10.0000 Du        
  11433 ****        25.2500  -8.0000  10.2500 Du        
  11434 ****        25.2500  -8.0000  10.5000 Du        
  11435 ****        25.2500  -8.0000  10.7500 Du        
  11436 ****        25.2500  -8.0000  11.0000 Du        
  11437 ****        25.2500  -7.7500   2.7500 Du        
  11438 ****        25.2500  -7.7500   3.0000 Du        
  11439 ****        25.2500  -7.7500   3.2500 Du        
  11440 ****        25.2500  -7.7500  10.2500 Du        
  11441 ****        25.2500  -7.7500  10.5000 Du        
  11442 ****        25.2500  -7.7500  10.7500 Du        
  11443 ****        25.2500  -7.7500  11.0000 Du        
  11444 ****        25.2500  -7.5000  10.5000 Du        
  11445 ****        25.2500  -7.5000  10.7500 Du        
  11446 ****        25.2500  -7.5000  11.0000 Du        
  11447 ****        25.2500  -4.5000  16.2500 Du        
  11448 ****        25.2500  -4.5000  16.5000 Du        
  11449 ****        25.2500  -4.2500  16.2500 Du        
  11450 ****        25.2500  -4.2500  16.5000 Du        
  11451 ****        25.2500  -4.2500  16.7500 Du        
  11452 ****        25.2500  -4.0000  16.2500 Du        
  11453 ****        25.2500  -4.0000  16.5000 Du        
  11454 ****        25.2500  -4.0000  16.7500 Du        
  11455 ****        25.2500  -3.7500  16.2500 Du        
  11456 ****        25.5000 -10.2500   1.5000 Du        
  11457 ****        25.5000 -10.2500   3.0000 Du        
  11458 ****        25.5000 -10.2500   3.2500 Du        
  11459 ****        25.5000 -10.2500   3.5000 Du        
  11460 ****        25.5000 -10.0000   0.5000 Du        
  11461 ****        25.5000 -10.0000   0.7500 Du        
  11462 ****        25.5000 -10.0000   1.0000 Du        
  11463 ****        25.5000 -10.0000   1.2500 Du        
  11464 ****        25.5000 -10.0000   1.5000 Du        
  11465 ****        25.5000 -10.0000   1.7500 Du        
  11466 ****        25.5000 -10.0000   2.0000 Du        
  11467 ****        25.5000 -10.0000   2.7500 Du        
  11468 ****        25.5000 -10.0000   3.0000 Du        
  11469 ****        25.5000 -10.0000   3.2500 Du        
  11470 ****        25.5000 -10.0000   3.5000 Du        
  11471 ****        25.5000 -10.0000   3.7500 Du        
  11472 ****        25.5000 -10.0000   4.0000 Du        
  11473 ****        25.5000  -9.7500   0.2500 Du        
  11474 ****        25.5000  -9.7500   0.5000 Du        
  11475 ****        25.5000  -9.7500   0.7500 Du        
  11476 ****        25.5000  -9.7500   1.0000 Du        
  11477 ****        25.5000  -9.7500   1.2500 Du        
  11478 ****        25.5000  -9.7500   1.5000 Du        
  11479 ****        25.5000  -9.7500   1.7500 Du        
  11480 ****        25.5000  -9.7500   2.0000 Du        
  11481 ****        25.5000  -9.7500   2.2500 Du        
  11482 ****        25.5000  -9.7500   2.7500 Du        
  11483 ****        25.5000  -9.7500   3.0000 Du        
  11484 ****        25.5000  -9.7500   3.2500 Du        
  11485 ****        25.5000  -9.7500   3.5000 Du        
  11486 ****        25.5000  -9.7500   3.7500 Du        
  11487 ****        25.5000  -9.7500   4.0000 Du        
  11488 ****        25.5000  -9.5000   0.2500 Du        
  11489 ****        25.5000  -9.5000   0.5000 Du        
  11490 ****        25.5000  -9.5000   0.7500 Du        
  11491 ****        25.5000  -9.5000   1.0000 Du        
  11492 ****        25.5000  -9.5000   1.2500 Du        
  11493 ****        25.5000  -9.5000   1.5000 Du        
  11494 ****        25.5000  -9.5000   1.7500 Du        
  11495 ****        25.5000  -9.5000   2.0000 Du        
  11496 ****        25.5000  -9.5000   2.2500 Du        
  11497 ****        25.5000  -9.2500   0.5000 Du        
  11498 ****        25.5000  -9.2500   0.7500 Du        
  11499 ****        25.5000  -9.2500   1.0000 Du        
  11500 ****        25.5000  -9.2500   1.2500 Du        
  11501 ****        25.5000  -9.2500   1.5000 Du        
  11502 ****        25.5000  -9.2500   1.7500 Du        
  11503 ****        25.5000  -9.2500   2.0000 Du        
  11504 ****        25.5000  -9.2500   2.2500 Du        
  11505 ****        25.5000  -9.2500   2.5000 Du        
  11506 ****        25.5000  -9.0000   0.5000 Du        
  11507 ****        25.5000  -9.0000   0.7500 Du        
  11508 ****        25.5000  -9.0000   1.0000 Du        
  11509 ****        25.5000  -9.0000   1.2500 Du        
  11510 ****        25.5000  -9.0000   1.5000 Du        
  11511 ****        25.5000  -9.0000   1.7500 Du        
  11512 ****        25.5000  -9.0000   2.0000 Du        
  11513 ****        25.5000  -9.0000   2.2500 Du        
  11514 ****        25.5000  -9.0000   2.5000 Du        
  11515 ****        25.5000  -9.0000   2.7500 Du        
  11516 ****        25.5000  -9.0000   3.0000 Du        
  11517 ****        25.5000  -9.0000   3.2500 Du        
  11518 ****        25.5000  -9.0000   3.5000 Du        
  11519 ****        25.5000  -9.0000   3.7500 Du        
  11520 ****        25.5000  -9.0000   4.0000 Du        
  11521 ****        25.5000  -8.7500   1.0000 Du        
  11522 ****        25.5000  -8.7500   1.2500 Du        
  11523 ****        25.5000  -8.7500   1.5000 Du        
  11524 ****        25.5000  -8.7500   1.7500 Du        
  11525 ****        25.5000  -8.7500   2.0000 Du        
  11526 ****        25.5000  -8.7500   2.2500 Du        
  11527 ****        25.5000  -8.7500   2.5000 Du        
  11528 ****        25.5000  -8.7500   2.7500 Du        
  11529 ****        25.5000  -8.7500   3.0000 Du        
  11530 ****        25.5000  -8.7500   3.2500 Du        
  11531 ****        25.5000  -8.7500   3.7500 Du        
  11532 ****        25.5000  -8.7500   4.0000 Du        
  11533 ****        25.5000  -8.7500  10.0000 Du        
  11534 ****        25.5000  -8.7500  10.2500 Du        
  11535 ****        25.5000  -8.5000   1.2500 Du        
  11536 ****        25.5000  -8.5000   1.5000 Du        
  11537 ****        25.5000  -8.5000   1.7500 Du        
  11538 ****        25.5000  -8.5000   2.0000 Du        
  11539 ****        25.5000  -8.5000   2.2500 Du        
  11540 ****        25.5000  -8.5000   2.5000 Du        
  11541 ****        25.5000  -8.5000   2.7500 Du        
  11542 ****        25.5000  -8.5000   3.0000 Du        
  11543 ****        25.5000  -8.5000   3.2500 Du        
  11544 ****        25.5000  -8.5000  10.0000 Du        
  11545 ****        25.5000  -8.5000  10.2500 Du        
  11546 ****        25.5000  -8.5000  10.5000 Du        
  11547 ****        25.5000  -8.2500   1.2500 Du        
  11548 ****        25.5000  -8.2500   1.5000 Du        
  11549 ****        25.5000  -8.2500   1.7500 Du        
  11550 ****        25.5000  -8.2500   2.0000 Du        
  11551 ****        25.5000  -8.2500   2.2500 Du        
  11552 ****        25.5000  -8.2500   2.5000 Du        
  11553 ****        25.5000  -8.2500   2.7500 Du        
  11554 ****        25.5000  -8.2500   3.0000 Du        
  11555 ****        25.5000  -8.2500   3.2500 Du        
  11556 ****        25.5000  -8.2500   3.5000 Du        
  11557 ****        25.5000  -8.2500  10.0000 Du        
  11558 ****        25.5000  -8.2500  10.2500 Du        
  11559 ****        25.5000  -8.2500  10.5000 Du        
  11560 ****        25.5000  -8.2500  10.7500 Du        
  11561 ****        25.5000  -8.0000   1.5000 Du        
  11562 ****        25.5000  -8.0000   1.7500 Du        
  11563 ****        25.5000  -8.0000   2.0000 Du        
  11564 ****        25.5000  -8.0000   2.2500 Du        
  11565 ****        25.5000  -8.0000   2.5000 Du        
  11566 ****        25.5000  -8.0000   2.7500 Du        
  11567 ****        25.5000  -8.0000   3.0000 Du        
  11568 ****        25.5000  -8.0000   3.2500 Du        
  11569 ****        25.5000  -8.0000  10.0000 Du        
  11570 ****        25.5000  -8.0000  10.2500 Du        
  11571 ****        25.5000  -8.0000  10.5000 Du        
  11572 ****        25.5000  -8.0000  10.7500 Du        
  11573 ****        25.5000  -7.7500   2.0000 Du        
  11574 ****        25.5000  -7.7500   2.2500 Du        
  11575 ****        25.5000  -7.7500   2.5000 Du        
  11576 ****        25.5000  -7.7500   2.7500 Du        
  11577 ****        25.5000  -7.7500   3.0000 Du        
  11578 ****        25.5000  -7.7500   3.2500 Du        
  11579 ****        25.5000  -7.7500  10.2500 Du        
  11580 ****        25.5000  -7.7500  10.5000 Du        
  11581 ****        25.5000  -7.7500  10.7500 Du        
  11582 ****        25.5000  -7.7500  11.0000 Du        
  11583 ****        25.5000  -7.5000  10.5000 Du        
  11584 ****        25.5000  -7.5000  10.7500 Du        
  11585 ****        25.5000  -7.5000  11.0000 Du        
  11586 ****        25.5000  -4.5000  16.5000 Du        
  11587 ****        25.5000  -4.5000  16.7500 Du        
  11588 ****        25.5000  -4.2500  16.5000 Du        
  11589 ****        25.5000  -4.2500  16.7500 Du        
  11590 ****        25.7500 -10.2500   3.2500 Du        
  11591 ****        25.7500 -10.2500   3.5000 Du        
  11592 ****        25.7500 -10.2500   3.7500 Du        
  11593 ****        25.7500 -10.0000   0.7500 Du        
  11594 ****        25.7500 -10.0000   1.0000 Du        
  11595 ****        25.7500 -10.0000   1.2500 Du        
  11596 ****        25.7500 -10.0000   1.5000 Du        
  11597 ****        25.7500 -10.0000   1.7500 Du        
  11598 ****        25.7500 -10.0000   2.0000 Du        
  11599 ****        25.7500 -10.0000   2.2500 Du        
  11600 ****        25.7500 -10.0000   2.7500 Du        
  11601 ****        25.7500 -10.0000   3.0000 Du        
  11602 ****        25.7500 -10.0000   3.2500 Du        
  11603 ****        25.7500 -10.0000   3.5000 Du        
  11604 ****        25.7500 -10.0000   3.7500 Du        
  11605 ****        25.7500 -10.0000   4.0000 Du        
  11606 ****        25.7500  -9.7500   0.2500 Du        
  11607 ****        25.7500  -9.7500   0.5000 Du        
  11608 ****        25.7500  -9.7500   0.7500 Du        
  11609 ****        25.7500  -9.7500   1.0000 Du        
  11610 ****        25.7500  -9.7500   1.2500 Du        
  11611 ****        25.7500  -9.7500   1.5000 Du        
  11612 ****        25.7500  -9.7500   1.7500 Du        
  11613 ****        25.7500  -9.7500   2.0000 Du        
  11614 ****        25.7500  -9.7500   2.2500 Du        
  11615 ****        25.7500  -9.7500   2.7500 Du        
  11616 ****        25.7500  -9.7500   3.0000 Du        
  11617 ****        25.7500  -9.7500   3.2500 Du        
  11618 ****        25.7500  -9.7500   3.5000 Du        
  11619 ****        25.7500  -9.7500   3.7500 Du        
  11620 ****        25.7500  -9.7500   4.0000 Du        
  11621 ****        25.7500  -9.7500   4.2500 Du        
  11622 ****        25.7500  -9.5000   0.2500 Du        
  11623 ****        25.7500  -9.5000   0.5000 Du        
  11624 ****        25.7500  -9.5000   0.7500 Du        
  11625 ****        25.7500  -9.5000   1.0000 Du        
  11626 ****        25.7500  -9.5000   1.2500 Du        
  11627 ****        25.7500  -9.5000   1.5000 Du        
  11628 ****        25.7500  -9.5000   1.7500 Du        
  11629 ****        25.7500  -9.5000   2.0000 Du        
  11630 ****        25.7500  -9.5000   2.2500 Du        
  11631 ****        25.7500  -9.5000   3.7500 Du        
  11632 ****        25.7500  -9.2500   0.2500 Du        
  11633 ****        25.7500  -9.2500   0.5000 Du        
  11634 ****        25.7500  -9.2500   0.7500 Du        
  11635 ****        25.7500  -9.2500   1.0000 Du        
  11636 ****        25.7500  -9.2500   1.2500 Du        
  11637 ****        25.7500  -9.2500   1.5000 Du        
  11638 ****        25.7500  -9.2500   1.7500 Du        
  11639 ****        25.7500  -9.2500   2.0000 Du        
  11640 ****        25.7500  -9.2500   2.2500 Du        
  11641 ****        25.7500  -9.2500   2.5000 Du        
  11642 ****        25.7500  -9.2500   2.7500 Du        
  11643 ****        25.7500  -9.2500   3.0000 Du        
  11644 ****        25.7500  -9.2500   3.5000 Du        
  11645 ****        25.7500  -9.2500   3.7500 Du        
  11646 ****        25.7500  -9.2500   4.0000 Du        
  11647 ****        25.7500  -9.0000   0.5000 Du        
  11648 ****        25.7500  -9.0000   0.7500 Du        
  11649 ****        25.7500  -9.0000   1.0000 Du        
  11650 ****        25.7500  -9.0000   1.2500 Du        
  11651 ****        25.7500  -9.0000   1.5000 Du        
  11652 ****        25.7500  -9.0000   1.7500 Du        
  11653 ****        25.7500  -9.0000   2.0000 Du        
  11654 ****        25.7500  -9.0000   2.2500 Du        
  11655 ****        25.7500  -9.0000   2.5000 Du        
  11656 ****        25.7500  -9.0000   2.7500 Du        
  11657 ****        25.7500  -9.0000   3.0000 Du        
  11658 ****        25.7500  -9.0000   3.2500 Du        
  11659 ****        25.7500  -9.0000   3.5000 Du        
  11660 ****        25.7500  -9.0000   3.7500 Du        
  11661 ****        25.7500  -9.0000   4.0000 Du        
  11662 ****        25.7500  -9.0000   9.7500 Du        
  11663 ****        25.7500  -9.0000  10.0000 Du        
  11664 ****        25.7500  -9.0000  10.2500 Du        
  11665 ****        25.7500  -8.7500   0.7500 Du        
  11666 ****        25.7500  -8.7500   1.0000 Du        
  11667 ****        25.7500  -8.7500   1.2500 Du        
  11668 ****        25.7500  -8.7500   1.5000 Du        
  11669 ****        25.7500  -8.7500   1.7500 Du        
  11670 ****        25.7500  -8.7500   2.0000 Du        
  11671 ****        25.7500  -8.7500   2.2500 Du        
  11672 ****        25.7500  -8.7500   2.5000 Du        
  11673 ****        25.7500  -8.7500   2.7500 Du        
  11674 ****        25.7500  -8.7500   3.0000 Du        
  11675 ****        25.7500  -8.7500   3.2500 Du        
  11676 ****        25.7500  -8.7500   3.5000 Du        
  11677 ****        25.7500  -8.7500   3.7500 Du        
  11678 ****        25.7500  -8.7500   4.0000 Du        
  11679 ****        25.7500  -8.7500   9.7500 Du        
  11680 ****        25.7500  -8.7500  10.0000 Du        
  11681 ****        25.7500  -8.7500  10.2500 Du        
  11682 ****        25.7500  -8.5000   1.2500 Du        
  11683 ****        25.7500  -8.5000   1.5000 Du        
  11684 ****        25.7500  -8.5000   1.7500 Du        
  11685 ****        25.7500  -8.5000   2.0000 Du        
  11686 ****        25.7500  -8.5000   2.2500 Du        
  11687 ****        25.7500  -8.5000   2.5000 Du        
  11688 ****        25.7500  -8.5000   2.7500 Du        
  11689 ****        25.7500  -8.5000   3.0000 Du        
  11690 ****        25.7500  -8.5000   3.2500 Du        
  11691 ****        25.7500  -8.5000   3.5000 Du        
  11692 ****        25.7500  -8.5000   3.7500 Du        
  11693 ****        25.7500  -8.5000  10.0000 Du        
  11694 ****        25.7500  -8.5000  10.2500 Du        
  11695 ****        25.7500  -8.5000  10.5000 Du        
  11696 ****        25.7500  -8.2500   1.2500 Du        
  11697 ****        25.7500  -8.2500   1.5000 Du        
  11698 ****        25.7500  -8.2500   1.7500 Du        
  11699 ****        25.7500  -8.2500   2.0000 Du        
  11700 ****        25.7500  -8.2500   2.2500 Du        
  11701 ****        25.7500  -8.2500   2.5000 Du        
  11702 ****        25.7500  -8.2500   2.7500 Du        
  11703 ****        25.7500  -8.2500   3.0000 Du        
  11704 ****        25.7500  -8.2500   3.2500 Du        
  11705 ****        25.7500  -8.2500   3.5000 Du        
  11706 ****        25.7500  -8.2500   3.7500 Du        
  11707 ****        25.7500  -8.2500  10.0000 Du        
  11708 ****        25.7500  -8.2500  10.2500 Du        
  11709 ****        25.7500  -8.2500  10.5000 Du        
  11710 ****        25.7500  -8.2500  10.7500 Du        
  11711 ****        25.7500  -8.0000   1.5000 Du        
  11712 ****        25.7500  -8.0000   1.7500 Du        
  11713 ****        25.7500  -8.0000   2.0000 Du        
  11714 ****        25.7500  -8.0000   2.2500 Du        
  11715 ****        25.7500  -8.0000   2.5000 Du        
  11716 ****        25.7500  -8.0000   2.7500 Du        
  11717 ****        25.7500  -8.0000   3.0000 Du        
  11718 ****        25.7500  -8.0000   3.2500 Du        
  11719 ****        25.7500  -8.0000   3.5000 Du        
  11720 ****        25.7500  -8.0000   3.7500 Du        
  11721 ****        25.7500  -8.0000  10.0000 Du        
  11722 ****        25.7500  -8.0000  10.2500 Du        
  11723 ****        25.7500  -8.0000  10.5000 Du        
  11724 ****        25.7500  -8.0000  10.7500 Du        
  11725 ****        25.7500  -7.7500   1.7500 Du        
  11726 ****        25.7500  -7.7500   2.0000 Du        
  11727 ****        25.7500  -7.7500   2.2500 Du        
  11728 ****        25.7500  -7.7500   2.5000 Du        
  11729 ****        25.7500  -7.7500   2.7500 Du        
  11730 ****        25.7500  -7.7500   3.0000 Du        
  11731 ****        25.7500  -7.7500   3.2500 Du        
  11732 ****        25.7500  -7.7500  10.2500 Du        
  11733 ****        25.7500  -7.7500  10.5000 Du        
  11734 ****        25.7500  -7.7500  10.7500 Du        
  11735 ****        25.7500  -7.7500  11.0000 Du        
  11736 ****        25.7500  -7.5000   2.2500 Du        
  11737 ****        25.7500  -7.5000   2.5000 Du        
  11738 ****        25.7500  -7.5000   2.7500 Du        
  11739 ****        25.7500  -7.5000  10.5000 Du        
  11740 ****        25.7500  -7.5000  10.7500 Du        
  11741 ****        25.7500  -7.5000  11.0000 Du        
  11742 ****        25.7500  -4.5000  16.7500 Du        
  11743 ****        26.0000 -10.2500   3.2500 Du        
  11744 ****        26.0000 -10.2500   3.5000 Du        
  11745 ****        26.0000 -10.2500   3.7500 Du        
  11746 ****        26.0000 -10.2500   4.0000 Du        
  11747 ****        26.0000 -10.0000   0.7500 Du        
  11748 ****        26.0000 -10.0000   1.0000 Du        
  11749 ****        26.0000 -10.0000   1.2500 Du        
  11750 ****        26.0000 -10.0000   1.7500 Du        
  11751 ****        26.0000 -10.0000   2.7500 Du        
  11752 ****        26.0000 -10.0000   3.0000 Du        
  11753 ****        26.0000 -10.0000   3.2500 Du        
  11754 ****        26.0000 -10.0000   3.5000 Du        
  11755 ****        26.0000 -10.0000   3.7500 Du        
  11756 ****        26.0000 -10.0000   4.0000 Du        
  11757 ****        26.0000 -10.0000   4.2500 Du        
  11758 ****        26.0000  -9.7500   0.2500 Du        
  11759 ****        26.0000  -9.7500   0.5000 Du        
  11760 ****        26.0000  -9.7500   0.7500 Du        
  11761 ****        26.0000  -9.7500   1.0000 Du        
  11762 ****        26.0000  -9.7500   1.2500 Du        
  11763 ****        26.0000  -9.7500   1.5000 Du        
  11764 ****        26.0000  -9.7500   1.7500 Du        
  11765 ****        26.0000  -9.7500   2.0000 Du        
  11766 ****        26.0000  -9.7500   2.7500 Du        
  11767 ****        26.0000  -9.7500   3.0000 Du        
  11768 ****        26.0000  -9.7500   3.2500 Du        
  11769 ****        26.0000  -9.7500   3.5000 Du        
  11770 ****        26.0000  -9.7500   3.7500 Du        
  11771 ****        26.0000  -9.7500   4.0000 Du        
  11772 ****        26.0000  -9.7500   4.2500 Du        
  11773 ****        26.0000  -9.5000   0.2500 Du        
  11774 ****        26.0000  -9.5000   0.5000 Du        
  11775 ****        26.0000  -9.5000   0.7500 Du        
  11776 ****        26.0000  -9.5000   1.0000 Du        
  11777 ****        26.0000  -9.5000   1.2500 Du        
  11778 ****        26.0000  -9.5000   1.5000 Du        
  11779 ****        26.0000  -9.5000   1.7500 Du        
  11780 ****        26.0000  -9.5000   2.0000 Du        
  11781 ****        26.0000  -9.5000   2.2500 Du        
  11782 ****        26.0000  -9.5000   2.7500 Du        
  11783 ****        26.0000  -9.5000   3.7500 Du        
  11784 ****        26.0000  -9.2500   0.2500 Du        
  11785 ****        26.0000  -9.2500   0.5000 Du        
  11786 ****        26.0000  -9.2500   0.7500 Du        
  11787 ****        26.0000  -9.2500   1.0000 Du        
  11788 ****        26.0000  -9.2500   1.2500 Du        
  11789 ****        26.0000  -9.2500   1.5000 Du        
  11790 ****        26.0000  -9.2500   1.7500 Du        
  11791 ****        26.0000  -9.2500   2.0000 Du        
  11792 ****        26.0000  -9.2500   2.2500 Du        
  11793 ****        26.0000  -9.2500   2.5000 Du        
  11794 ****        26.0000  -9.2500   2.7500 Du        
  11795 ****        26.0000  -9.2500   3.0000 Du        
  11796 ****        26.0000  -9.2500   3.2500 Du        
  11797 ****        26.0000  -9.2500   3.5000 Du        
  11798 ****        26.0000  -9.2500   3.7500 Du        
  11799 ****        26.0000  -9.2500   4.0000 Du        
  11800 ****        26.0000  -9.2500   9.7500 Du        
  11801 ****        26.0000  -9.2500  10.0000 Du        
  11802 ****        26.0000  -9.0000   0.5000 Du        
  11803 ****        26.0000  -9.0000   0.7500 Du        
  11804 ****        26.0000  -9.0000   1.0000 Du        
  11805 ****        26.0000  -9.0000   1.2500 Du        
  11806 ****        26.0000  -9.0000   1.5000 Du        
  11807 ****        26.0000  -9.0000   1.7500 Du        
  11808 ****        26.0000  -9.0000   2.0000 Du        
  11809 ****        26.0000  -9.0000   2.2500 Du        
  11810 ****        26.0000  -9.0000   2.5000 Du        
  11811 ****        26.0000  -9.0000   2.7500 Du        
  11812 ****        26.0000  -9.0000   3.0000 Du        
  11813 ****        26.0000  -9.0000   3.2500 Du        
  11814 ****        26.0000  -9.0000   3.5000 Du        
  11815 ****        26.0000  -9.0000   3.7500 Du        
  11816 ****        26.0000  -9.0000   4.0000 Du        
  11817 ****        26.0000  -9.0000   9.7500 Du        
  11818 ****        26.0000  -9.0000  10.0000 Du        
  11819 ****        26.0000  -9.0000  10.2500 Du        
  11820 ****        26.0000  -8.7500   1.0000 Du        
  11821 ****        26.0000  -8.7500   1.2500 Du        
  11822 ****        26.0000  -8.7500   1.5000 Du        
  11823 ****        26.0000  -8.7500   1.7500 Du        
  11824 ****        26.0000  -8.7500   2.0000 Du        
  11825 ****        26.0000  -8.7500   2.2500 Du        
  11826 ****        26.0000  -8.7500   2.5000 Du        
  11827 ****        26.0000  -8.7500   2.7500 Du        
  11828 ****        26.0000  -8.7500   3.0000 Du        
  11829 ****        26.0000  -8.7500   3.2500 Du        
  11830 ****        26.0000  -8.7500   3.5000 Du        
  11831 ****        26.0000  -8.7500   3.7500 Du        
  11832 ****        26.0000  -8.7500   4.0000 Du        
  11833 ****        26.0000  -8.7500   9.7500 Du        
  11834 ****        26.0000  -8.7500  10.0000 Du        
  11835 ****        26.0000  -8.7500  10.2500 Du        
  11836 ****        26.0000  -8.5000   1.2500 Du        
  11837 ****        26.0000  -8.5000   1.5000 Du        
  11838 ****        26.0000  -8.5000   1.7500 Du        
  11839 ****        26.0000  -8.5000   2.0000 Du        
  11840 ****        26.0000  -8.5000   2.2500 Du        
  11841 ****        26.0000  -8.5000   2.5000 Du        
  11842 ****        26.0000  -8.5000   2.7500 Du        
  11843 ****        26.0000  -8.5000   3.0000 Du        
  11844 ****        26.0000  -8.5000   3.2500 Du        
  11845 ****        26.0000  -8.5000   3.5000 Du        
  11846 ****        26.0000  -8.5000   3.7500 Du        
  11847 ****        26.0000  -8.5000   9.7500 Du        
  11848 ****        26.0000  -8.5000  10.0000 Du        
  11849 ****        26.0000  -8.5000  10.2500 Du        
  11850 ****        26.0000  -8.5000  10.5000 Du        
  11851 ****        26.0000  -8.2500   1.5000 Du        
  11852 ****        26.0000  -8.2500   1.7500 Du        
  11853 ****        26.0000  -8.2500   2.0000 Du        
  11854 ****        26.0000  -8.2500   2.2500 Du        
  11855 ****        26.0000  -8.2500   2.5000 Du        
  11856 ****        26.0000  -8.2500   2.7500 Du        
  11857 ****        26.0000  -8.2500   3.0000 Du        
  11858 ****        26.0000  -8.2500   3.2500 Du        
  11859 ****        26.0000  -8.2500   3.5000 Du        
  11860 ****        26.0000  -8.2500   3.7500 Du        
  11861 ****        26.0000  -8.2500  10.0000 Du        
  11862 ****        26.0000  -8.2500  10.2500 Du        
  11863 ****        26.0000  -8.2500  10.5000 Du        
  11864 ****        26.0000  -8.0000   1.5000 Du        
  11865 ****        26.0000  -8.0000   1.7500 Du        
  11866 ****        26.0000  -8.0000   2.0000 Du        
  11867 ****        26.0000  -8.0000   2.2500 Du        
  11868 ****        26.0000  -8.0000   2.5000 Du        
  11869 ****        26.0000  -8.0000   2.7500 Du        
  11870 ****        26.0000  -8.0000   3.0000 Du        
  11871 ****        26.0000  -8.0000   3.2500 Du        
  11872 ****        26.0000  -8.0000   3.5000 Du        
  11873 ****        26.0000  -8.0000   3.7500 Du        
  11874 ****        26.0000  -8.0000  10.0000 Du        
  11875 ****        26.0000  -8.0000  10.2500 Du        
  11876 ****        26.0000  -8.0000  10.5000 Du        
  11877 ****        26.0000  -8.0000  10.7500 Du        
  11878 ****        26.0000  -7.7500   1.7500 Du        
  11879 ****        26.0000  -7.7500   2.0000 Du        
  11880 ****        26.0000  -7.7500   2.2500 Du        
  11881 ****        26.0000  -7.7500   2.5000 Du        
  11882 ****        26.0000  -7.7500   2.7500 Du        
  11883 ****        26.0000  -7.7500   3.0000 Du        
  11884 ****        26.0000  -7.7500   3.2500 Du        
  11885 ****        26.0000  -7.7500  10.2500 Du        
  11886 ****        26.0000  -7.7500  10.5000 Du        
  11887 ****        26.0000  -7.7500  10.7500 Du        
  11888 ****        26.0000  -7.7500  11.0000 Du        
  11889 ****        26.0000  -7.5000   2.2500 Du        
  11890 ****        26.0000  -7.5000   2.5000 Du        
  11891 ****        26.0000  -7.5000   2.7500 Du        
  11892 ****        26.0000  -7.5000   3.0000 Du        
  11893 ****        26.0000  -7.5000  10.5000 Du        
  11894 ****        26.0000  -7.5000  10.7500 Du        
  11895 ****        26.0000  -7.5000  11.0000 Du        
  11896 ****        26.2500 -10.2500   3.5000 Du        
  11897 ****        26.2500 -10.2500   3.7500 Du        
  11898 ****        26.2500 -10.2500   4.0000 Du        
  11899 ****        26.2500 -10.0000   0.7500 Du        
  11900 ****        26.2500 -10.0000   1.0000 Du        
  11901 ****        26.2500 -10.0000   3.0000 Du        
  11902 ****        26.2500 -10.0000   3.2500 Du        
  11903 ****        26.2500 -10.0000   3.5000 Du        
  11904 ****        26.2500 -10.0000   3.7500 Du        
  11905 ****        26.2500 -10.0000   4.0000 Du        
  11906 ****        26.2500 -10.0000   4.2500 Du        
  11907 ****        26.2500  -9.7500   0.2500 Du        
  11908 ****        26.2500  -9.7500   0.5000 Du        
  11909 ****        26.2500  -9.7500   0.7500 Du        
  11910 ****        26.2500  -9.7500   1.0000 Du        
  11911 ****        26.2500  -9.7500   1.2500 Du        
  11912 ****        26.2500  -9.7500   1.5000 Du        
  11913 ****        26.2500  -9.7500   1.7500 Du        
  11914 ****        26.2500  -9.7500   2.0000 Du        
  11915 ****        26.2500  -9.7500   2.7500 Du        
  11916 ****        26.2500  -9.7500   3.0000 Du        
  11917 ****        26.2500  -9.7500   3.2500 Du        
  11918 ****        26.2500  -9.7500   3.5000 Du        
  11919 ****        26.2500  -9.7500   3.7500 Du        
  11920 ****        26.2500  -9.7500   4.0000 Du        
  11921 ****        26.2500  -9.7500   4.2500 Du        
  11922 ****        26.2500  -9.7500   4.5000 Du        
  11923 ****        26.2500  -9.5000   0.2500 Du        
  11924 ****        26.2500  -9.5000   0.5000 Du        
  11925 ****        26.2500  -9.5000   0.7500 Du        
  11926 ****        26.2500  -9.5000   1.0000 Du        
  11927 ****        26.2500  -9.5000   1.2500 Du        
  11928 ****        26.2500  -9.5000   1.5000 Du        
  11929 ****        26.2500  -9.5000   1.7500 Du        
  11930 ****        26.2500  -9.5000   2.0000 Du        
  11931 ****        26.2500  -9.5000   2.2500 Du        
  11932 ****        26.2500  -9.5000   2.5000 Du        
  11933 ****        26.2500  -9.5000   2.7500 Du        
  11934 ****        26.2500  -9.5000   3.0000 Du        
  11935 ****        26.2500  -9.5000   3.2500 Du        
  11936 ****        26.2500  -9.5000   3.5000 Du        
  11937 ****        26.2500  -9.5000   3.7500 Du        
  11938 ****        26.2500  -9.5000   4.0000 Du        
  11939 ****        26.2500  -9.5000   4.2500 Du        
  11940 ****        26.2500  -9.5000   4.5000 Du        
  11941 ****        26.2500  -9.2500   0.2500 Du        
  11942 ****        26.2500  -9.2500   0.5000 Du        
  11943 ****        26.2500  -9.2500   0.7500 Du        
  11944 ****        26.2500  -9.2500   1.0000 Du        
  11945 ****        26.2500  -9.2500   1.2500 Du        
  11946 ****        26.2500  -9.2500   1.5000 Du        
  11947 ****        26.2500  -9.2500   1.7500 Du        
  11948 ****        26.2500  -9.2500   2.0000 Du        
  11949 ****        26.2500  -9.2500   2.2500 Du        
  11950 ****        26.2500  -9.2500   2.5000 Du        
  11951 ****        26.2500  -9.2500   2.7500 Du        
  11952 ****        26.2500  -9.2500   3.0000 Du        
  11953 ****        26.2500  -9.2500   3.2500 Du        
  11954 ****        26.2500  -9.2500   3.5000 Du        
  11955 ****        26.2500  -9.2500   3.7500 Du        
  11956 ****        26.2500  -9.2500   4.0000 Du        
  11957 ****        26.2500  -9.2500   4.2500 Du        
  11958 ****        26.2500  -9.2500   4.5000 Du        
  11959 ****        26.2500  -9.0000   0.5000 Du        
  11960 ****        26.2500  -9.0000   0.7500 Du        
  11961 ****        26.2500  -9.0000   1.0000 Du        
  11962 ****        26.2500  -9.0000   1.2500 Du        
  11963 ****        26.2500  -9.0000   1.5000 Du        
  11964 ****        26.2500  -9.0000   1.7500 Du        
  11965 ****        26.2500  -9.0000   2.0000 Du        
  11966 ****        26.2500  -9.0000   2.2500 Du        
  11967 ****        26.2500  -9.0000   2.5000 Du        
  11968 ****        26.2500  -9.0000   2.7500 Du        
  11969 ****        26.2500  -9.0000   3.0000 Du        
  11970 ****        26.2500  -9.0000   3.2500 Du        
  11971 ****        26.2500  -9.0000   3.5000 Du        
  11972 ****        26.2500  -9.0000   3.7500 Du        
  11973 ****        26.2500  -9.0000   4.0000 Du        
  11974 ****        26.2500  -9.0000   4.2500 Du        
  11975 ****        26.2500  -9.0000   9.7500 Du        
  11976 ****        26.2500  -9.0000  10.0000 Du        
  11977 ****        26.2500  -8.7500   1.0000 Du        
  11978 ****        26.2500  -8.7500   1.2500 Du        
  11979 ****        26.2500  -8.7500   1.5000 Du        
  11980 ****        26.2500  -8.7500   1.7500 Du        
  11981 ****        26.2500  -8.7500   2.0000 Du        
  11982 ****        26.2500  -8.7500   2.2500 Du        
  11983 ****        26.2500  -8.7500   2.5000 Du        
  11984 ****        26.2500  -8.7500   2.7500 Du        
  11985 ****        26.2500  -8.7500   3.0000 Du        
  11986 ****        26.2500  -8.7500   3.2500 Du        
  11987 ****        26.2500  -8.7500   3.5000 Du        
  11988 ****        26.2500  -8.7500   3.7500 Du        
  11989 ****        26.2500  -8.7500   4.0000 Du        
  11990 ****        26.2500  -8.7500   4.2500 Du        
  11991 ****        26.2500  -8.7500   9.7500 Du        
  11992 ****        26.2500  -8.7500  10.0000 Du        
  11993 ****        26.2500  -8.7500  10.2500 Du        
  11994 ****        26.2500  -8.5000   1.2500 Du        
  11995 ****        26.2500  -8.5000   1.5000 Du        
  11996 ****        26.2500  -8.5000   1.7500 Du        
  11997 ****        26.2500  -8.5000   2.0000 Du        
  11998 ****        26.2500  -8.5000   2.2500 Du        
  11999 ****        26.2500  -8.5000   2.5000 Du        
  12000 ****        26.2500  -8.5000   2.7500 Du        
  12001 ****        26.2500  -8.5000   3.0000 Du        
  12002 ****        26.2500  -8.5000   3.2500 Du        
  12003 ****        26.2500  -8.5000   3.5000 Du        
  12004 ****        26.2500  -8.5000   3.7500 Du        
  12005 ****        26.2500  -8.5000   4.0000 Du        
  12006 ****        26.2500  -8.5000   9.7500 Du        
  12007 ****        26.2500  -8.5000  10.0000 Du        
  12008 ****        26.2500  -8.5000  10.2500 Du        
  12009 ****        26.2500  -8.2500   1.5000 Du        
  12010 ****        26.2500  -8.2500   1.7500 Du        
  12011 ****        26.2500  -8.2500   2.0000 Du        
  12012 ****        26.2500  -8.2500   2.2500 Du        
  12013 ****        26.2500  -8.2500   2.5000 Du        
  12014 ****        26.2500  -8.2500   2.7500 Du        
  12015 ****        26.2500  -8.2500   3.0000 Du        
  12016 ****        26.2500  -8.2500   3.2500 Du        
  12017 ****        26.2500  -8.2500   3.5000 Du        
  12018 ****        26.2500  -8.2500   3.7500 Du        
  12019 ****        26.2500  -8.2500   4.0000 Du        
  12020 ****        26.2500  -8.2500  10.0000 Du        
  12021 ****        26.2500  -8.2500  10.2500 Du        
  12022 ****        26.2500  -8.2500  10.5000 Du        
  12023 ****        26.2500  -8.0000   1.7500 Du        
  12024 ****        26.2500  -8.0000   2.0000 Du        
  12025 ****        26.2500  -8.0000   2.2500 Du        
  12026 ****        26.2500  -8.0000   2.5000 Du        
  12027 ****        26.2500  -8.0000   2.7500 Du        
  12028 ****        26.2500  -8.0000   3.0000 Du        
  12029 ****        26.2500  -8.0000   3.2500 Du        
  12030 ****        26.2500  -8.0000   3.5000 Du        
  12031 ****        26.2500  -8.0000   3.7500 Du        
  12032 ****        26.2500  -8.0000  10.0000 Du        
  12033 ****        26.2500  -8.0000  10.2500 Du        
  12034 ****        26.2500  -8.0000  10.5000 Du        
  12035 ****        26.2500  -8.0000  10.7500 Du        
  12036 ****        26.2500  -7.7500   2.0000 Du        
  12037 ****        26.2500  -7.7500   2.2500 Du        
  12038 ****        26.2500  -7.7500   2.5000 Du        
  12039 ****        26.2500  -7.7500   2.7500 Du        
  12040 ****        26.2500  -7.7500   3.0000 Du        
  12041 ****        26.2500  -7.7500   3.2500 Du        
  12042 ****        26.2500  -7.7500   3.5000 Du        
  12043 ****        26.2500  -7.7500  10.2500 Du        
  12044 ****        26.2500  -7.7500  10.5000 Du        
  12045 ****        26.2500  -7.7500  10.7500 Du        
  12046 ****        26.2500  -7.7500  11.0000 Du        
  12047 ****        26.2500  -7.5000   2.5000 Du        
  12048 ****        26.2500  -7.5000   2.7500 Du        
  12049 ****        26.2500  -7.5000   3.0000 Du        
  12050 ****        26.2500  -7.5000   3.2500 Du        
  12051 ****        26.2500  -7.5000  10.5000 Du        
  12052 ****        26.2500  -7.5000  10.7500 Du        
  12053 ****        26.2500  -7.5000  11.0000 Du        
  12054 ****        26.5000 -10.2500   3.5000 Du        
  12055 ****        26.5000 -10.2500   3.7500 Du        
  12056 ****        26.5000 -10.2500   4.0000 Du        
  12057 ****        26.5000 -10.2500   4.2500 Du        
  12058 ****        26.5000 -10.0000   0.5000 Du        
  12059 ****        26.5000 -10.0000   0.7500 Du        
  12060 ****        26.5000 -10.0000   1.0000 Du        
  12061 ****        26.5000 -10.0000   3.0000 Du        
  12062 ****        26.5000 -10.0000   3.2500 Du        
  12063 ****        26.5000 -10.0000   3.5000 Du        
  12064 ****        26.5000 -10.0000   3.7500 Du        
  12065 ****        26.5000 -10.0000   4.0000 Du        
  12066 ****        26.5000 -10.0000   4.2500 Du        
  12067 ****        26.5000 -10.0000   4.5000 Du        
  12068 ****        26.5000  -9.7500   0.2500 Du        
  12069 ****        26.5000  -9.7500   0.5000 Du        
  12070 ****        26.5000  -9.7500   0.7500 Du        
  12071 ****        26.5000  -9.7500   1.0000 Du        
  12072 ****        26.5000  -9.7500   1.2500 Du        
  12073 ****        26.5000  -9.7500   1.5000 Du        
  12074 ****        26.5000  -9.7500   1.7500 Du        
  12075 ****        26.5000  -9.7500   2.0000 Du        
  12076 ****        26.5000  -9.7500   3.0000 Du        
  12077 ****        26.5000  -9.7500   3.2500 Du        
  12078 ****        26.5000  -9.7500   3.5000 Du        
  12079 ****        26.5000  -9.7500   3.7500 Du        
  12080 ****        26.5000  -9.7500   4.0000 Du        
  12081 ****        26.5000  -9.7500   4.2500 Du        
  12082 ****        26.5000  -9.7500   4.5000 Du        
  12083 ****        26.5000  -9.7500   4.7500 Du        
  12084 ****        26.5000  -9.5000   0.0000 Du        
  12085 ****        26.5000  -9.5000   0.2500 Du        
  12086 ****        26.5000  -9.5000   0.5000 Du        
  12087 ****        26.5000  -9.5000   0.7500 Du        
  12088 ****        26.5000  -9.5000   1.0000 Du        
  12089 ****        26.5000  -9.5000   1.2500 Du        
  12090 ****        26.5000  -9.5000   1.5000 Du        
  12091 ****        26.5000  -9.5000   1.7500 Du        
  12092 ****        26.5000  -9.5000   2.0000 Du        
  12093 ****        26.5000  -9.5000   2.2500 Du        
  12094 ****        26.5000  -9.5000   2.7500 Du        
  12095 ****        26.5000  -9.5000   3.0000 Du        
  12096 ****        26.5000  -9.5000   3.2500 Du        
  12097 ****        26.5000  -9.5000   3.5000 Du        
  12098 ****        26.5000  -9.5000   3.7500 Du        
  12099 ****        26.5000  -9.5000   4.0000 Du        
  12100 ****        26.5000  -9.5000   4.2500 Du        
  12101 ****        26.5000  -9.5000   4.5000 Du        
  12102 ****        26.5000  -9.5000   4.7500 Du        
  12103 ****        26.5000  -9.2500   0.0000 Du        
  12104 ****        26.5000  -9.2500   0.2500 Du        
  12105 ****        26.5000  -9.2500   0.5000 Du        
  12106 ****        26.5000  -9.2500   0.7500 Du        
  12107 ****        26.5000  -9.2500   1.0000 Du        
  12108 ****        26.5000  -9.2500   1.2500 Du        
  12109 ****        26.5000  -9.2500   1.5000 Du        
  12110 ****        26.5000  -9.2500   1.7500 Du        
  12111 ****        26.5000  -9.2500   2.0000 Du        
  12112 ****        26.5000  -9.2500   2.2500 Du        
  12113 ****        26.5000  -9.2500   2.5000 Du        
  12114 ****        26.5000  -9.2500   2.7500 Du        
  12115 ****        26.5000  -9.2500   3.0000 Du        
  12116 ****        26.5000  -9.2500   3.2500 Du        
  12117 ****        26.5000  -9.2500   3.5000 Du        
  12118 ****        26.5000  -9.2500   3.7500 Du        
  12119 ****        26.5000  -9.2500   4.0000 Du        
  12120 ****        26.5000  -9.2500   4.2500 Du        
  12121 ****        26.5000  -9.2500   4.5000 Du        
  12122 ****        26.5000  -9.0000   0.5000 Du        
  12123 ****        26.5000  -9.0000   0.7500 Du        
  12124 ****        26.5000  -9.0000   1.0000 Du        
  12125 ****        26.5000  -9.0000   1.2500 Du        
  12126 ****        26.5000  -9.0000   1.5000 Du        
  12127 ****        26.5000  -9.0000   1.7500 Du        
  12128 ****        26.5000  -9.0000   2.0000 Du        
  12129 ****        26.5000  -9.0000   2.2500 Du        
  12130 ****        26.5000  -9.0000   2.5000 Du        
  12131 ****        26.5000  -9.0000   2.7500 Du        
  12132 ****        26.5000  -9.0000   3.0000 Du        
  12133 ****        26.5000  -9.0000   3.2500 Du        
  12134 ****        26.5000  -9.0000   3.5000 Du        
  12135 ****        26.5000  -9.0000   3.7500 Du        
  12136 ****        26.5000  -9.0000   4.0000 Du        
  12137 ****        26.5000  -9.0000   4.2500 Du        
  12138 ****        26.5000  -8.7500   1.0000 Du        
  12139 ****        26.5000  -8.7500   1.2500 Du        
  12140 ****        26.5000  -8.7500   1.5000 Du        
  12141 ****        26.5000  -8.7500   1.7500 Du        
  12142 ****        26.5000  -8.7500   2.0000 Du        
  12143 ****        26.5000  -8.7500   2.2500 Du        
  12144 ****        26.5000  -8.7500   2.5000 Du        
  12145 ****        26.5000  -8.7500   2.7500 Du        
  12146 ****        26.5000  -8.7500   3.0000 Du        
  12147 ****        26.5000  -8.7500   3.2500 Du        
  12148 ****        26.5000  -8.7500   3.5000 Du        
  12149 ****        26.5000  -8.7500   3.7500 Du        
  12150 ****        26.5000  -8.7500   4.0000 Du        
  12151 ****        26.5000  -8.5000   1.7500 Du        
  12152 ****        26.5000  -8.5000   2.0000 Du        
  12153 ****        26.5000  -8.5000   2.2500 Du        
  12154 ****        26.5000  -8.5000   2.5000 Du        
  12155 ****        26.5000  -8.5000   2.7500 Du        
  12156 ****        26.5000  -8.5000   3.0000 Du        
  12157 ****        26.5000  -8.5000   3.2500 Du        
  12158 ****        26.5000  -8.5000   3.5000 Du        
  12159 ****        26.5000  -8.5000   3.7500 Du        
  12160 ****        26.5000  -8.5000   4.0000 Du        
  12161 ****        26.5000  -8.5000  10.0000 Du        
  12162 ****        26.5000  -8.5000  10.2500 Du        
  12163 ****        26.5000  -8.2500   2.0000 Du        
  12164 ****        26.5000  -8.2500   2.2500 Du        
  12165 ****        26.5000  -8.2500   2.5000 Du        
  12166 ****        26.5000  -8.2500   2.7500 Du        
  12167 ****        26.5000  -8.2500   3.0000 Du        
  12168 ****        26.5000  -8.2500   3.2500 Du        
  12169 ****        26.5000  -8.2500   3.5000 Du        
  12170 ****        26.5000  -8.2500   3.7500 Du        
  12171 ****        26.5000  -8.2500   4.0000 Du        
  12172 ****        26.5000  -8.2500  10.0000 Du        
  12173 ****        26.5000  -8.2500  10.2500 Du        
  12174 ****        26.5000  -8.2500  10.5000 Du        
  12175 ****        26.5000  -8.0000   2.2500 Du        
  12176 ****        26.5000  -8.0000   2.5000 Du        
  12177 ****        26.5000  -8.0000   2.7500 Du        
  12178 ****        26.5000  -8.0000   3.0000 Du        
  12179 ****        26.5000  -8.0000   3.2500 Du        
  12180 ****        26.5000  -8.0000   3.5000 Du        
  12181 ****        26.5000  -8.0000   3.7500 Du        
  12182 ****        26.5000  -8.0000   4.0000 Du        
  12183 ****        26.5000  -8.0000  10.0000 Du        
  12184 ****        26.5000  -8.0000  10.2500 Du        
  12185 ****        26.5000  -8.0000  10.5000 Du        
  12186 ****        26.5000  -8.0000  10.7500 Du        
  12187 ****        26.5000  -7.7500   2.5000 Du        
  12188 ****        26.5000  -7.7500   2.7500 Du        
  12189 ****        26.5000  -7.7500   3.0000 Du        
  12190 ****        26.5000  -7.7500   3.2500 Du        
  12191 ****        26.5000  -7.7500   3.5000 Du        
  12192 ****        26.5000  -7.7500   3.7500 Du        
  12193 ****        26.5000  -7.7500  10.2500 Du        
  12194 ****        26.5000  -7.7500  10.5000 Du        
  12195 ****        26.5000  -7.7500  10.7500 Du        
  12196 ****        26.5000  -7.5000   2.7500 Du        
  12197 ****        26.5000  -7.5000   3.0000 Du        
  12198 ****        26.5000  -7.5000   3.2500 Du        
  12199 ****        26.5000  -7.5000  10.5000 Du        
  12200 ****        26.5000  -7.5000  10.7500 Du        
  12201 ****        26.5000  -6.0000  16.2500 Du        
  12202 ****        26.5000  -6.0000  16.5000 Du        
  12203 ****        26.5000  -6.0000  16.7500 Du        
  12204 ****        26.5000  -5.7500  16.2500 Du        
  12205 ****        26.5000  -5.7500  16.5000 Du        
  12206 ****        26.5000  -5.7500  16.7500 Du        
  12207 ****        26.5000  -5.7500  17.0000 Du        
  12208 ****        26.5000  -5.5000  16.2500 Du        
  12209 ****        26.7500 -10.5000   4.0000 Du        
  12210 ****        26.7500 -10.5000   4.2500 Du        
  12211 ****        26.7500 -10.2500   3.5000 Du        
  12212 ****        26.7500 -10.2500   3.7500 Du        
  12213 ****        26.7500 -10.2500   4.0000 Du        
  12214 ****        26.7500 -10.2500   4.2500 Du        
  12215 ****        26.7500 -10.2500   4.5000 Du        
  12216 ****        26.7500 -10.2500   4.7500 Du        
  12217 ****        26.7500 -10.0000   0.5000 Du        
  12218 ****        26.7500 -10.0000   0.7500 Du        
  12219 ****        26.7500 -10.0000   3.2500 Du        
  12220 ****        26.7500 -10.0000   3.5000 Du        
  12221 ****        26.7500 -10.0000   3.7500 Du        
  12222 ****        26.7500 -10.0000   4.0000 Du        
  12223 ****        26.7500 -10.0000   4.2500 Du        
  12224 ****        26.7500 -10.0000   4.5000 Du        
  12225 ****        26.7500 -10.0000   4.7500 Du        
  12226 ****        26.7500 -10.0000   5.0000 Du        
  12227 ****        26.7500  -9.7500   0.0000 Du        
  12228 ****        26.7500  -9.7500   0.2500 Du        
  12229 ****        26.7500  -9.7500   0.5000 Du        
  12230 ****        26.7500  -9.7500   0.7500 Du        
  12231 ****        26.7500  -9.7500   1.0000 Du        
  12232 ****        26.7500  -9.7500   1.2500 Du        
  12233 ****        26.7500  -9.7500   1.5000 Du        
  12234 ****        26.7500  -9.7500   1.7500 Du        
  12235 ****        26.7500  -9.7500   3.0000 Du        
  12236 ****        26.7500  -9.7500   3.2500 Du        
  12237 ****        26.7500  -9.7500   3.5000 Du        
  12238 ****        26.7500  -9.7500   3.7500 Du        
  12239 ****        26.7500  -9.7500   4.0000 Du        
  12240 ****        26.7500  -9.7500   4.2500 Du        
  12241 ****        26.7500  -9.7500   4.5000 Du        
  12242 ****        26.7500  -9.7500   4.7500 Du        
  12243 ****        26.7500  -9.7500   5.0000 Du        
  12244 ****        26.7500  -9.5000   0.0000 Du        
  12245 ****        26.7500  -9.5000   0.2500 Du        
  12246 ****        26.7500  -9.5000   0.5000 Du        
  12247 ****        26.7500  -9.5000   0.7500 Du        
  12248 ****        26.7500  -9.5000   1.0000 Du        
  12249 ****        26.7500  -9.5000   1.2500 Du        
  12250 ****        26.7500  -9.5000   1.5000 Du        
  12251 ****        26.7500  -9.5000   1.7500 Du        
  12252 ****        26.7500  -9.5000   2.0000 Du        
  12253 ****        26.7500  -9.5000   2.2500 Du        
  12254 ****        26.7500  -9.5000   2.5000 Du        
  12255 ****        26.7500  -9.5000   2.7500 Du        
  12256 ****        26.7500  -9.5000   3.0000 Du        
  12257 ****        26.7500  -9.5000   3.2500 Du        
  12258 ****        26.7500  -9.5000   3.5000 Du        
  12259 ****        26.7500  -9.5000   3.7500 Du        
  12260 ****        26.7500  -9.5000   4.0000 Du        
  12261 ****        26.7500  -9.5000   4.2500 Du        
  12262 ****        26.7500  -9.5000   4.5000 Du        
  12263 ****        26.7500  -9.5000   4.7500 Du        
  12264 ****        26.7500  -9.2500   0.0000 Du        
  12265 ****        26.7500  -9.2500   0.2500 Du        
  12266 ****        26.7500  -9.2500   0.5000 Du        
  12267 ****        26.7500  -9.2500   0.7500 Du        
  12268 ****        26.7500  -9.2500   1.0000 Du        
  12269 ****        26.7500  -9.2500   1.2500 Du        
  12270 ****        26.7500  -9.2500   1.5000 Du        
  12271 ****        26.7500  -9.2500   1.7500 Du        
  12272 ****        26.7500  -9.2500   2.0000 Du        
  12273 ****        26.7500  -9.2500   2.2500 Du        
  12274 ****        26.7500  -9.2500   2.5000 Du        
  12275 ****        26.7500  -9.2500   2.7500 Du        
  12276 ****        26.7500  -9.2500   3.0000 Du        
  12277 ****        26.7500  -9.2500   3.2500 Du        
  12278 ****        26.7500  -9.2500   3.5000 Du        
  12279 ****        26.7500  -9.2500   3.7500 Du        
  12280 ****        26.7500  -9.2500   4.0000 Du        
  12281 ****        26.7500  -9.2500   4.2500 Du        
  12282 ****        26.7500  -9.2500   4.5000 Du        
  12283 ****        26.7500  -9.2500   4.7500 Du        
  12284 ****        26.7500  -9.0000   0.7500 Du        
  12285 ****        26.7500  -9.0000   1.0000 Du        
  12286 ****        26.7500  -9.0000   1.2500 Du        
  12287 ****        26.7500  -9.0000   1.5000 Du        
  12288 ****        26.7500  -9.0000   1.7500 Du        
  12289 ****        26.7500  -9.0000   2.0000 Du        
  12290 ****        26.7500  -9.0000   2.2500 Du        
  12291 ****        26.7500  -9.0000   2.5000 Du        
  12292 ****        26.7500  -9.0000   2.7500 Du        
  12293 ****        26.7500  -9.0000   3.0000 Du        
  12294 ****        26.7500  -9.0000   3.2500 Du        
  12295 ****        26.7500  -9.0000   3.5000 Du        
  12296 ****        26.7500  -9.0000   3.7500 Du        
  12297 ****        26.7500  -9.0000   4.0000 Du        
  12298 ****        26.7500  -9.0000   4.2500 Du        
  12299 ****        26.7500  -9.0000   4.5000 Du        
  12300 ****        26.7500  -8.7500   1.7500 Du        
  12301 ****        26.7500  -8.7500   2.0000 Du        
  12302 ****        26.7500  -8.7500   2.2500 Du        
  12303 ****        26.7500  -8.7500   2.5000 Du        
  12304 ****        26.7500  -8.7500   2.7500 Du        
  12305 ****        26.7500  -8.7500   3.0000 Du        
  12306 ****        26.7500  -8.7500   3.2500 Du        
  12307 ****        26.7500  -8.7500   3.5000 Du        
  12308 ****        26.7500  -8.7500   3.7500 Du        
  12309 ****        26.7500  -8.7500   4.0000 Du        
  12310 ****        26.7500  -8.7500   4.2500 Du        
  12311 ****        26.7500  -8.5000   2.0000 Du        
  12312 ****        26.7500  -8.5000   2.2500 Du        
  12313 ****        26.7500  -8.5000   2.5000 Du        
  12314 ****        26.7500  -8.5000   2.7500 Du        
  12315 ****        26.7500  -8.5000   3.0000 Du        
  12316 ****        26.7500  -8.5000   3.2500 Du        
  12317 ****        26.7500  -8.5000   3.5000 Du        
  12318 ****        26.7500  -8.5000   3.7500 Du        
  12319 ****        26.7500  -8.5000   4.0000 Du        
  12320 ****        26.7500  -8.5000   4.2500 Du        
  12321 ****        26.7500  -8.2500   2.5000 Du        
  12322 ****        26.7500  -8.2500   2.7500 Du        
  12323 ****        26.7500  -8.2500   3.0000 Du        
  12324 ****        26.7500  -8.2500   3.2500 Du        
  12325 ****        26.7500  -8.2500   3.5000 Du        
  12326 ****        26.7500  -8.2500   3.7500 Du        
  12327 ****        26.7500  -8.2500   4.0000 Du        
  12328 ****        26.7500  -8.2500  10.2500 Du        
  12329 ****        26.7500  -8.0000   2.7500 Du        
  12330 ****        26.7500  -8.0000   3.0000 Du        
  12331 ****        26.7500  -8.0000   3.2500 Du        
  12332 ****        26.7500  -8.0000   3.5000 Du        
  12333 ****        26.7500  -8.0000   3.7500 Du        
  12334 ****        26.7500  -8.0000   4.0000 Du        
  12335 ****        26.7500  -8.0000  10.2500 Du        
  12336 ****        26.7500  -8.0000  10.5000 Du        
  12337 ****        26.7500  -7.7500   2.7500 Du        
  12338 ****        26.7500  -7.7500   3.0000 Du        
  12339 ****        26.7500  -7.7500   3.2500 Du        
  12340 ****        26.7500  -7.7500   3.5000 Du        
  12341 ****        26.7500  -7.7500   3.7500 Du        
  12342 ****        26.7500  -7.7500   4.0000 Du        
  12343 ****        26.7500  -7.7500  10.2500 Du        
  12344 ****        26.7500  -7.7500  10.5000 Du        
  12345 ****        26.7500  -7.7500  10.7500 Du        
  12346 ****        26.7500  -7.5000   3.0000 Du        
  12347 ****        26.7500  -7.5000   3.2500 Du        
  12348 ****        26.7500  -7.5000   3.5000 Du        
  12349 ****        26.7500  -7.5000   3.7500 Du        
  12350 ****        26.7500  -7.5000  10.5000 Du        
  12351 ****        26.7500  -7.5000  10.7500 Du        
  12352 ****        26.7500  -6.5000  15.7500 Du        
  12353 ****        26.7500  -6.5000  16.0000 Du        
  12354 ****        26.7500  -6.5000  16.2500 Du        
  12355 ****        26.7500  -6.5000  16.5000 Du        
  12356 ****        26.7500  -6.5000  16.7500 Du        
  12357 ****        26.7500  -6.5000  17.0000 Du        
  12358 ****        26.7500  -6.2500  15.7500 Du        
  12359 ****        26.7500  -6.2500  16.0000 Du        
  12360 ****        26.7500  -6.2500  16.2500 Du        
  12361 ****        26.7500  -6.2500  16.5000 Du        
  12362 ****        26.7500  -6.2500  16.7500 Du        
  12363 ****        26.7500  -6.2500  17.0000 Du        
  12364 ****        26.7500  -6.0000  16.0000 Du        
  12365 ****        26.7500  -6.0000  16.2500 Du        
  12366 ****        26.7500  -6.0000  16.5000 Du        
  12367 ****        26.7500  -6.0000  16.7500 Du        
  12368 ****        26.7500  -5.7500  16.2500 Du        
  12369 ****        26.7500  -5.7500  16.5000 Du        
  12370 ****        26.7500  -5.7500  16.7500 Du        
  12371 ****        26.7500  -5.5000  16.2500 Du        
  12372 ****        27.0000 -10.7500   4.2500 Du        
  12373 ****        27.0000 -10.5000   4.0000 Du        
  12374 ****        27.0000 -10.5000   4.2500 Du        
  12375 ****        27.0000 -10.5000   4.5000 Du        
  12376 ****        27.0000 -10.5000   4.7500 Du        
  12377 ****        27.0000 -10.2500   3.7500 Du        
  12378 ****        27.0000 -10.2500   4.0000 Du        
  12379 ****        27.0000 -10.2500   4.2500 Du        
  12380 ****        27.0000 -10.2500   4.5000 Du        
  12381 ****        27.0000 -10.2500   4.7500 Du        
  12382 ****        27.0000 -10.2500   5.0000 Du        
  12383 ****        27.0000 -10.2500   5.2500 Du        
  12384 ****        27.0000 -10.0000   0.2500 Du        
  12385 ****        27.0000 -10.0000   0.5000 Du        
  12386 ****        27.0000 -10.0000   0.7500 Du        
  12387 ****        27.0000 -10.0000   3.2500 Du        
  12388 ****        27.0000 -10.0000   3.5000 Du        
  12389 ****        27.0000 -10.0000   3.7500 Du        
  12390 ****        27.0000 -10.0000   4.0000 Du        
  12391 ****        27.0000 -10.0000   4.2500 Du        
  12392 ****        27.0000 -10.0000   4.5000 Du        
  12393 ****        27.0000 -10.0000   4.7500 Du        
  12394 ****        27.0000 -10.0000   5.0000 Du        
  12395 ****        27.0000 -10.0000   5.2500 Du        
  12396 ****        27.0000 -10.0000   5.5000 Du        
  12397 ****        27.0000  -9.7500   0.0000 Du        
  12398 ****        27.0000  -9.7500   0.2500 Du        
  12399 ****        27.0000  -9.7500   0.5000 Du        
  12400 ****        27.0000  -9.7500   0.7500 Du        
  12401 ****        27.0000  -9.7500   1.0000 Du        
  12402 ****        27.0000  -9.7500   1.2500 Du        
  12403 ****        27.0000  -9.7500   1.5000 Du        
  12404 ****        27.0000  -9.7500   3.0000 Du        
  12405 ****        27.0000  -9.7500   3.2500 Du        
  12406 ****        27.0000  -9.7500   3.5000 Du        
  12407 ****        27.0000  -9.7500   3.7500 Du        
  12408 ****        27.0000  -9.7500   4.0000 Du        
  12409 ****        27.0000  -9.7500   4.2500 Du        
  12410 ****        27.0000  -9.7500   4.5000 Du        
  12411 ****        27.0000  -9.7500   4.7500 Du        
  12412 ****        27.0000  -9.7500   5.0000 Du        
  12413 ****        27.0000  -9.7500   5.2500 Du        
  12414 ****        27.0000  -9.5000   0.0000 Du        
  12415 ****        27.0000  -9.5000   0.2500 Du        
  12416 ****        27.0000  -9.5000   0.5000 Du        
  12417 ****        27.0000  -9.5000   0.7500 Du        
  12418 ****        27.0000  -9.5000   1.0000 Du        
  12419 ****        27.0000  -9.5000   1.2500 Du        
  12420 ****        27.0000  -9.5000   1.5000 Du        
  12421 ****        27.0000  -9.5000   1.7500 Du        
  12422 ****        27.0000  -9.5000   2.0000 Du        
  12423 ****        27.0000  -9.5000   2.2500 Du        
  12424 ****        27.0000  -9.5000   2.7500 Du        
  12425 ****        27.0000  -9.5000   3.0000 Du        
  12426 ****        27.0000  -9.5000   3.2500 Du        
  12427 ****        27.0000  -9.5000   3.5000 Du        
  12428 ****        27.0000  -9.5000   3.7500 Du        
  12429 ****        27.0000  -9.5000   4.0000 Du        
  12430 ****        27.0000  -9.5000   4.2500 Du        
  12431 ****        27.0000  -9.5000   4.5000 Du        
  12432 ****        27.0000  -9.5000   4.7500 Du        
  12433 ****        27.0000  -9.5000   5.0000 Du        
  12434 ****        27.0000  -9.2500   0.0000 Du        
  12435 ****        27.0000  -9.2500   0.2500 Du        
  12436 ****        27.0000  -9.2500   0.5000 Du        
  12437 ****        27.0000  -9.2500   0.7500 Du        
  12438 ****        27.0000  -9.2500   1.0000 Du        
  12439 ****        27.0000  -9.2500   1.2500 Du        
  12440 ****        27.0000  -9.2500   1.5000 Du        
  12441 ****        27.0000  -9.2500   1.7500 Du        
  12442 ****        27.0000  -9.2500   2.0000 Du        
  12443 ****        27.0000  -9.2500   2.2500 Du        
  12444 ****        27.0000  -9.2500   2.5000 Du        
  12445 ****        27.0000  -9.2500   2.7500 Du        
  12446 ****        27.0000  -9.2500   3.0000 Du        
  12447 ****        27.0000  -9.2500   3.2500 Du        
  12448 ****        27.0000  -9.2500   3.5000 Du        
  12449 ****        27.0000  -9.2500   3.7500 Du        
  12450 ****        27.0000  -9.2500   4.0000 Du        
  12451 ****        27.0000  -9.2500   4.2500 Du        
  12452 ****        27.0000  -9.2500   4.5000 Du        
  12453 ****        27.0000  -9.2500   4.7500 Du        
  12454 ****        27.0000  -9.0000   1.2500 Du        
  12455 ****        27.0000  -9.0000   1.5000 Du        
  12456 ****        27.0000  -9.0000   1.7500 Du        
  12457 ****        27.0000  -9.0000   2.0000 Du        
  12458 ****        27.0000  -9.0000   2.2500 Du        
  12459 ****        27.0000  -9.0000   2.5000 Du        
  12460 ****        27.0000  -9.0000   2.7500 Du        
  12461 ****        27.0000  -9.0000   3.0000 Du        
  12462 ****        27.0000  -9.0000   3.2500 Du        
  12463 ****        27.0000  -9.0000   3.5000 Du        
  12464 ****        27.0000  -9.0000   3.7500 Du        
  12465 ****        27.0000  -9.0000   4.0000 Du        
  12466 ****        27.0000  -9.0000   4.2500 Du        
  12467 ****        27.0000  -9.0000   4.5000 Du        
  12468 ****        27.0000  -8.7500   2.2500 Du        
  12469 ****        27.0000  -8.7500   2.7500 Du        
  12470 ****        27.0000  -8.7500   3.0000 Du        
  12471 ****        27.0000  -8.7500   3.2500 Du        
  12472 ****        27.0000  -8.7500   3.5000 Du        
  12473 ****        27.0000  -8.7500   3.7500 Du        
  12474 ****        27.0000  -8.7500   4.0000 Du        
  12475 ****        27.0000  -8.7500   4.2500 Du        
  12476 ****        27.0000  -8.7500   4.5000 Du        
  12477 ****        27.0000  -8.5000   2.7500 Du        
  12478 ****        27.0000  -8.5000   3.0000 Du        
  12479 ****        27.0000  -8.5000   3.2500 Du        
  12480 ****        27.0000  -8.5000   3.5000 Du        
  12481 ****        27.0000  -8.5000   3.7500 Du        
  12482 ****        27.0000  -8.5000   4.0000 Du        
  12483 ****        27.0000  -8.5000   4.2500 Du        
  12484 ****        27.0000  -8.2500   2.7500 Du        
  12485 ****        27.0000  -8.2500   3.0000 Du        
  12486 ****        27.0000  -8.2500   3.2500 Du        
  12487 ****        27.0000  -8.2500   3.5000 Du        
  12488 ****        27.0000  -8.2500   3.7500 Du        
  12489 ****        27.0000  -8.2500   4.0000 Du        
  12490 ****        27.0000  -8.2500   4.2500 Du        
  12491 ****        27.0000  -8.0000   3.0000 Du        
  12492 ****        27.0000  -8.0000   3.2500 Du        
  12493 ****        27.0000  -8.0000   3.5000 Du        
  12494 ****        27.0000  -8.0000   3.7500 Du        
  12495 ****        27.0000  -8.0000   4.0000 Du        
  12496 ****        27.0000  -8.0000   4.2500 Du        
  12497 ****        27.0000  -7.7500   3.0000 Du        
  12498 ****        27.0000  -7.7500   3.2500 Du        
  12499 ****        27.0000  -7.7500   3.5000 Du        
  12500 ****        27.0000  -7.7500   3.7500 Du        
  12501 ****        27.0000  -7.7500   4.0000 Du        
  12502 ****        27.0000  -7.7500  10.2500 Du        
  12503 ****        27.0000  -7.7500  10.5000 Du        
  12504 ****        27.0000  -7.7500  10.7500 Du        
  12505 ****        27.0000  -7.5000   3.2500 Du        
  12506 ****        27.0000  -7.5000   3.5000 Du        
  12507 ****        27.0000  -7.5000   3.7500 Du        
  12508 ****        27.0000  -7.5000   4.0000 Du        
  12509 ****        27.0000  -7.5000  10.5000 Du        
  12510 ****        27.0000  -7.5000  10.7500 Du        
  12511 ****        27.2500 -10.7500   4.2500 Du        
  12512 ****        27.2500 -10.7500   4.5000 Du        
  12513 ****        27.2500 -10.7500   4.7500 Du        
  12514 ****        27.2500 -10.5000   4.0000 Du        
  12515 ****        27.2500 -10.5000   4.2500 Du        
  12516 ****        27.2500 -10.5000   4.5000 Du        
  12517 ****        27.2500 -10.5000   4.7500 Du        
  12518 ****        27.2500 -10.5000   5.0000 Du        
  12519 ****        27.2500 -10.5000   5.2500 Du        
  12520 ****        27.2500 -10.5000   5.5000 Du        
  12521 ****        27.2500 -10.2500   3.5000 Du        
  12522 ****        27.2500 -10.2500   3.7500 Du        
  12523 ****        27.2500 -10.2500   4.0000 Du        
  12524 ****        27.2500 -10.2500   4.2500 Du        
  12525 ****        27.2500 -10.2500   4.5000 Du        
  12526 ****        27.2500 -10.2500   4.7500 Du        
  12527 ****        27.2500 -10.2500   5.0000 Du        
  12528 ****        27.2500 -10.2500   5.2500 Du        
  12529 ****        27.2500 -10.2500   5.5000 Du        
  12530 ****        27.2500 -10.2500   5.7500 Du        
  12531 ****        27.2500 -10.0000   0.2500 Du        
  12532 ****        27.2500 -10.0000   0.5000 Du        
  12533 ****        27.2500 -10.0000   0.7500 Du        
  12534 ****        27.2500 -10.0000   3.2500 Du        
  12535 ****        27.2500 -10.0000   3.5000 Du        
  12536 ****        27.2500 -10.0000   3.7500 Du        
  12537 ****        27.2500 -10.0000   4.0000 Du        
  12538 ****        27.2500 -10.0000   4.2500 Du        
  12539 ****        27.2500 -10.0000   4.5000 Du        
  12540 ****        27.2500 -10.0000   4.7500 Du        
  12541 ****        27.2500 -10.0000   5.0000 Du        
  12542 ****        27.2500 -10.0000   5.2500 Du        
  12543 ****        27.2500 -10.0000   5.5000 Du        
  12544 ****        27.2500 -10.0000   5.7500 Du        
  12545 ****        27.2500  -9.7500   0.0000 Du        
  12546 ****        27.2500  -9.7500   0.2500 Du        
  12547 ****        27.2500  -9.7500   0.5000 Du        
  12548 ****        27.2500  -9.7500   0.7500 Du        
  12549 ****        27.2500  -9.7500   1.0000 Du        
  12550 ****        27.2500  -9.7500   1.2500 Du        
  12551 ****        27.2500  -9.7500   3.0000 Du        
  12552 ****        27.2500  -9.7500   3.2500 Du        
  12553 ****        27.2500  -9.7500   3.5000 Du        
  12554 ****        27.2500  -9.7500   3.7500 Du        
  12555 ****        27.2500  -9.7500   4.0000 Du        
  12556 ****        27.2500  -9.7500   4.2500 Du        
  12557 ****        27.2500  -9.7500   4.5000 Du        
  12558 ****        27.2500  -9.7500   4.7500 Du        
  12559 ****        27.2500  -9.7500   5.0000 Du        
  12560 ****        27.2500  -9.7500   5.2500 Du        
  12561 ****        27.2500  -9.7500   5.5000 Du        
  12562 ****        27.2500  -9.7500   5.7500 Du        
  12563 ****        27.2500  -9.5000  -0.2500 Du        
  12564 ****        27.2500  -9.5000   0.0000 Du        
  12565 ****        27.2500  -9.5000   0.2500 Du        
  12566 ****        27.2500  -9.5000   0.5000 Du        
  12567 ****        27.2500  -9.5000   0.7500 Du        
  12568 ****        27.2500  -9.5000   1.0000 Du        
  12569 ****        27.2500  -9.5000   1.2500 Du        
  12570 ****        27.2500  -9.5000   1.5000 Du        
  12571 ****        27.2500  -9.5000   1.7500 Du        
  12572 ****        27.2500  -9.5000   2.0000 Du        
  12573 ****        27.2500  -9.5000   2.2500 Du        
  12574 ****        27.2500  -9.5000   2.7500 Du        
  12575 ****        27.2500  -9.5000   3.0000 Du        
  12576 ****        27.2500  -9.5000   3.2500 Du        
  12577 ****        27.2500  -9.5000   3.5000 Du        
  12578 ****        27.2500  -9.5000   3.7500 Du        
  12579 ****        27.2500  -9.5000   4.0000 Du        
  12580 ****        27.2500  -9.5000   4.2500 Du        
  12581 ****        27.2500  -9.5000   4.5000 Du        
  12582 ****        27.2500  -9.5000   4.7500 Du        
  12583 ****        27.2500  -9.5000   5.0000 Du        
  12584 ****        27.2500  -9.5000   5.2500 Du        
  12585 ****        27.2500  -9.2500   0.0000 Du        
  12586 ****        27.2500  -9.2500   0.2500 Du        
  12587 ****        27.2500  -9.2500   0.5000 Du        
  12588 ****        27.2500  -9.2500   0.7500 Du        
  12589 ****        27.2500  -9.2500   1.0000 Du        
  12590 ****        27.2500  -9.2500   1.2500 Du        
  12591 ****        27.2500  -9.2500   1.5000 Du        
  12592 ****        27.2500  -9.2500   1.7500 Du        
  12593 ****        27.2500  -9.2500   2.0000 Du        
  12594 ****        27.2500  -9.2500   2.2500 Du        
  12595 ****        27.2500  -9.2500   2.7500 Du        
  12596 ****        27.2500  -9.2500   3.0000 Du        
  12597 ****        27.2500  -9.2500   3.2500 Du        
  12598 ****        27.2500  -9.2500   3.5000 Du        
  12599 ****        27.2500  -9.2500   3.7500 Du        
  12600 ****        27.2500  -9.2500   4.0000 Du        
  12601 ****        27.2500  -9.2500   4.2500 Du        
  12602 ****        27.2500  -9.2500   4.5000 Du        
  12603 ****        27.2500  -9.2500   4.7500 Du        
  12604 ****        27.2500  -9.2500   5.0000 Du        
  12605 ****        27.2500  -9.0000   2.2500 Du        
  12606 ****        27.2500  -9.0000   2.7500 Du        
  12607 ****        27.2500  -9.0000   3.0000 Du        
  12608 ****        27.2500  -9.0000   3.2500 Du        
  12609 ****        27.2500  -9.0000   3.5000 Du        
  12610 ****        27.2500  -9.0000   3.7500 Du        
  12611 ****        27.2500  -9.0000   4.0000 Du        
  12612 ****        27.2500  -9.0000   4.2500 Du        
  12613 ****        27.2500  -9.0000   4.5000 Du        
  12614 ****        27.2500  -9.0000   4.7500 Du        
  12615 ****        27.2500  -8.7500   3.0000 Du        
  12616 ****        27.2500  -8.7500   3.2500 Du        
  12617 ****        27.2500  -8.7500   3.5000 Du        
  12618 ****        27.2500  -8.7500   3.7500 Du        
  12619 ****        27.2500  -8.7500   4.0000 Du        
  12620 ****        27.2500  -8.7500   4.2500 Du        
  12621 ****        27.2500  -8.7500   4.5000 Du        
  12622 ****        27.2500  -8.5000   3.0000 Du        
  12623 ****        27.2500  -8.5000   3.2500 Du        
  12624 ****        27.2500  -8.5000   3.5000 Du        
  12625 ****        27.2500  -8.5000   3.7500 Du        
  12626 ****        27.2500  -8.5000   4.0000 Du        
  12627 ****        27.2500  -8.5000   4.2500 Du        
  12628 ****        27.2500  -8.2500   3.0000 Du        
  12629 ****        27.2500  -8.2500   3.2500 Du        
  12630 ****        27.2500  -8.2500   3.5000 Du        
  12631 ****        27.2500  -8.2500   3.7500 Du        
  12632 ****        27.2500  -8.2500   4.0000 Du        
  12633 ****        27.2500  -8.2500   4.2500 Du        
  12634 ****        27.2500  -8.0000   3.2500 Du        
  12635 ****        27.2500  -8.0000   3.5000 Du        
  12636 ****        27.2500  -8.0000   3.7500 Du        
  12637 ****        27.2500  -8.0000   4.0000 Du        
  12638 ****        27.2500  -8.0000   4.2500 Du        
  12639 ****        27.2500  -7.7500   3.2500 Du        
  12640 ****        27.2500  -7.7500   3.5000 Du        
  12641 ****        27.2500  -7.7500   3.7500 Du        
  12642 ****        27.2500  -7.7500   4.0000 Du        
  12643 ****        27.2500  -7.5000   3.5000 Du        
  12644 ****        27.2500  -7.5000   3.7500 Du        
  12645 ****        27.2500  -7.5000   4.0000 Du        
  12646 ****        27.2500  -7.2500   3.7500 Du        
  12647 ****        27.5000 -11.0000   5.0000 Du        
  12648 ****        27.5000 -10.7500   4.2500 Du        
  12649 ****        27.5000 -10.7500   4.5000 Du        
  12650 ****        27.5000 -10.7500   4.7500 Du        
  12651 ****        27.5000 -10.7500   5.0000 Du        
  12652 ****        27.5000 -10.7500   5.2500 Du        
  12653 ****        27.5000 -10.7500   5.5000 Du        
  12654 ****        27.5000 -10.5000   4.0000 Du        
  12655 ****        27.5000 -10.5000   4.2500 Du        
  12656 ****        27.5000 -10.5000   4.5000 Du        
  12657 ****        27.5000 -10.5000   4.7500 Du        
  12658 ****        27.5000 -10.5000   5.0000 Du        
  12659 ****        27.5000 -10.5000   5.2500 Du        
  12660 ****        27.5000 -10.5000   5.5000 Du        
  12661 ****        27.5000 -10.2500   3.5000 Du        
  12662 ****        27.5000 -10.2500   3.7500 Du        
  12663 ****        27.5000 -10.2500   4.0000 Du        
  12664 ****        27.5000 -10.2500   4.2500 Du        
  12665 ****        27.5000 -10.2500   4.5000 Du        
  12666 ****        27.5000 -10.2500   4.7500 Du        
  12667 ****        27.5000 -10.2500   5.0000 Du        
  12668 ****        27.5000 -10.2500   5.2500 Du        
  12669 ****        27.5000 -10.2500   5.5000 Du        
  12670 ****        27.5000 -10.2500   5.7500 Du        
  12671 ****        27.5000 -10.2500   6.0000 Du        
  12672 ****        27.5000 -10.0000   0.0000 Du        
  12673 ****        27.5000 -10.0000   0.2500 Du        
  12674 ****        27.5000 -10.0000   0.5000 Du        
  12675 ****        27.5000 -10.0000   0.7500 Du        
  12676 ****        27.5000 -10.0000   3.2500 Du        
  12677 ****        27.5000 -10.0000   3.5000 Du        
  12678 ****        27.5000 -10.0000   3.7500 Du        
  12679 ****        27.5000 -10.0000   4.0000 Du        
  12680 ****        27.5000 -10.0000   4.2500 Du        
  12681 ****        27.5000 -10.0000   4.5000 Du        
  12682 ****        27.5000 -10.0000   4.7500 Du        
  12683 ****        27.5000 -10.0000   5.0000 Du        
  12684 ****        27.5000 -10.0000   5.2500 Du        
  12685 ****        27.5000 -10.0000   5.5000 Du        
  12686 ****        27.5000 -10.0000   5.7500 Du        
  12687 ****        27.5000 -10.0000   6.0000 Du        
  12688 ****        27.5000  -9.7500  -0.2500 Du        
  12689 ****        27.5000  -9.7500   0.0000 Du        
  12690 ****        27.5000  -9.7500   0.2500 Du        
  12691 ****        27.5000  -9.7500   0.5000 Du        
  12692 ****        27.5000  -9.7500   0.7500 Du        
  12693 ****        27.5000  -9.7500   1.0000 Du        
  12694 ****        27.5000  -9.7500   1.2500 Du        
  12695 ****        27.5000  -9.7500   2.7500 Du        
  12696 ****        27.5000  -9.7500   3.0000 Du        
  12697 ****        27.5000  -9.7500   3.2500 Du        
  12698 ****        27.5000  -9.7500   3.5000 Du        
  12699 ****        27.5000  -9.7500   3.7500 Du        
  12700 ****        27.5000  -9.7500   4.0000 Du        
  12701 ****        27.5000  -9.7500   4.2500 Du        
  12702 ****        27.5000  -9.7500   4.5000 Du        
  12703 ****        27.5000  -9.7500   4.7500 Du        
  12704 ****        27.5000  -9.7500   5.0000 Du        
  12705 ****        27.5000  -9.7500   5.2500 Du        
  12706 ****        27.5000  -9.7500   5.5000 Du        
  12707 ****        27.5000  -9.7500   5.7500 Du        
  12708 ****        27.5000  -9.7500   6.0000 Du        
  12709 ****        27.5000  -9.5000  -0.2500 Du        
  12710 ****        27.5000  -9.5000   0.0000 Du        
  12711 ****        27.5000  -9.5000   0.2500 Du        
  12712 ****        27.5000  -9.5000   0.5000 Du        
  12713 ****        27.5000  -9.5000   0.7500 Du        
  12714 ****        27.5000  -9.5000   1.0000 Du        
  12715 ****        27.5000  -9.5000   1.2500 Du        
  12716 ****        27.5000  -9.5000   1.5000 Du        
  12717 ****        27.5000  -9.5000   1.7500 Du        
  12718 ****        27.5000  -9.5000   2.0000 Du        
  12719 ****        27.5000  -9.5000   2.2500 Du        
  12720 ****        27.5000  -9.5000   2.5000 Du        
  12721 ****        27.5000  -9.5000   2.7500 Du        
  12722 ****        27.5000  -9.5000   3.0000 Du        
  12723 ****        27.5000  -9.5000   3.2500 Du        
  12724 ****        27.5000  -9.5000   3.5000 Du        
  12725 ****        27.5000  -9.5000   3.7500 Du        
  12726 ****        27.5000  -9.5000   4.0000 Du        
  12727 ****        27.5000  -9.5000   4.2500 Du        
  12728 ****        27.5000  -9.5000   4.5000 Du        
  12729 ****        27.5000  -9.5000   4.7500 Du        
  12730 ****        27.5000  -9.5000   5.0000 Du        
  12731 ****        27.5000  -9.5000   5.2500 Du        
  12732 ****        27.5000  -9.5000   5.5000 Du        
  12733 ****        27.5000  -9.2500   2.2500 Du        
  12734 ****        27.5000  -9.2500   2.5000 Du        
  12735 ****        27.5000  -9.2500   2.7500 Du        
  12736 ****        27.5000  -9.2500   3.0000 Du        
  12737 ****        27.5000  -9.2500   3.2500 Du        
  12738 ****        27.5000  -9.2500   3.5000 Du        
  12739 ****        27.5000  -9.2500   3.7500 Du        
  12740 ****        27.5000  -9.2500   4.0000 Du        
  12741 ****        27.5000  -9.2500   4.2500 Du        
  12742 ****        27.5000  -9.2500   4.5000 Du        
  12743 ****        27.5000  -9.2500   4.7500 Du        
  12744 ****        27.5000  -9.2500   5.0000 Du        
  12745 ****        27.5000  -9.2500   5.2500 Du        
  12746 ****        27.5000  -9.0000   2.7500 Du        
  12747 ****        27.5000  -9.0000   3.0000 Du        
  12748 ****        27.5000  -9.0000   3.2500 Du        
  12749 ****        27.5000  -9.0000   3.5000 Du        
  12750 ****        27.5000  -9.0000   3.7500 Du        
  12751 ****        27.5000  -9.0000   4.0000 Du        
  12752 ****        27.5000  -9.0000   4.2500 Du        
  12753 ****        27.5000  -9.0000   4.5000 Du        
  12754 ****        27.5000  -9.0000   4.7500 Du        
  12755 ****        27.5000  -9.0000   5.0000 Du        
  12756 ****        27.5000  -8.7500   3.0000 Du        
  12757 ****        27.5000  -8.7500   3.2500 Du        
  12758 ****        27.5000  -8.7500   3.5000 Du        
  12759 ****        27.5000  -8.7500   3.7500 Du        
  12760 ****        27.5000  -8.7500   4.0000 Du        
  12761 ****        27.5000  -8.7500   4.2500 Du        
  12762 ****        27.5000  -8.7500   4.5000 Du        
  12763 ****        27.5000  -8.7500   4.7500 Du        
  12764 ****        27.5000  -8.5000   3.2500 Du        
  12765 ****        27.5000  -8.5000   3.5000 Du        
  12766 ****        27.5000  -8.5000   3.7500 Du        
  12767 ****        27.5000  -8.5000   4.0000 Du        
  12768 ****        27.5000  -8.5000   4.2500 Du        
  12769 ****        27.5000  -8.5000   4.5000 Du        
  12770 ****        27.5000  -8.2500   3.2500 Du        
  12771 ****        27.5000  -8.2500   3.5000 Du        
  12772 ****        27.5000  -8.2500   3.7500 Du        
  12773 ****        27.5000  -8.2500   4.0000 Du        
  12774 ****        27.5000  -8.2500   4.2500 Du        
  12775 ****        27.5000  -8.2500   4.5000 Du        
  12776 ****        27.5000  -8.0000   3.5000 Du        
  12777 ****        27.5000  -8.0000   3.7500 Du        
  12778 ****        27.5000  -8.0000   4.0000 Du        
  12779 ****        27.5000  -8.0000   4.2500 Du        
  12780 ****        27.5000  -7.7500   3.5000 Du        
  12781 ****        27.5000  -7.7500   3.7500 Du        
  12782 ****        27.5000  -7.7500   4.0000 Du        
  12783 ****        27.5000  -7.7500   4.2500 Du        
  12784 ****        27.5000  -7.5000   3.5000 Du        
  12785 ****        27.5000  -7.5000   3.7500 Du        
  12786 ****        27.5000  -7.5000   4.0000 Du        
  12787 ****        27.5000  -7.2500   3.7500 Du        
  12788 ****        27.7500 -11.0000   4.7500 Du        
  12789 ****        27.7500 -11.0000   5.0000 Du        
  12790 ****        27.7500 -11.0000   5.2500 Du        
  12791 ****        27.7500 -10.7500   4.2500 Du        
  12792 ****        27.7500 -10.7500   4.5000 Du        
  12793 ****        27.7500 -10.7500   4.7500 Du        
  12794 ****        27.7500 -10.7500   5.0000 Du        
  12795 ****        27.7500 -10.7500   5.2500 Du        
  12796 ****        27.7500 -10.7500   5.5000 Du        
  12797 ****        27.7500 -10.5000   4.0000 Du        
  12798 ****        27.7500 -10.5000   4.2500 Du        
  12799 ****        27.7500 -10.5000   4.5000 Du        
  12800 ****        27.7500 -10.5000   4.7500 Du        
  12801 ****        27.7500 -10.5000   5.0000 Du        
  12802 ****        27.7500 -10.5000   5.2500 Du        
  12803 ****        27.7500 -10.5000   5.5000 Du        
  12804 ****        27.7500 -10.5000   5.7500 Du        
  12805 ****        27.7500 -10.2500   3.5000 Du        
  12806 ****        27.7500 -10.2500   3.7500 Du        
  12807 ****        27.7500 -10.2500   4.0000 Du        
  12808 ****        27.7500 -10.2500   4.2500 Du        
  12809 ****        27.7500 -10.2500   4.5000 Du        
  12810 ****        27.7500 -10.2500   4.7500 Du        
  12811 ****        27.7500 -10.2500   5.0000 Du        
  12812 ****        27.7500 -10.2500   5.2500 Du        
  12813 ****        27.7500 -10.2500   5.5000 Du        
  12814 ****        27.7500 -10.2500   5.7500 Du        
  12815 ****        27.7500 -10.2500   6.0000 Du        
  12816 ****        27.7500 -10.0000   0.0000 Du        
  12817 ****        27.7500 -10.0000   0.2500 Du        
  12818 ****        27.7500 -10.0000   0.5000 Du        
  12819 ****        27.7500 -10.0000   0.7500 Du        
  12820 ****        27.7500 -10.0000   3.0000 Du        
  12821 ****        27.7500 -10.0000   3.2500 Du        
  12822 ****        27.7500 -10.0000   3.5000 Du        
  12823 ****        27.7500 -10.0000   3.7500 Du        
  12824 ****        27.7500 -10.0000   4.0000 Du        
  12825 ****        27.7500 -10.0000   4.2500 Du        
  12826 ****        27.7500 -10.0000   4.5000 Du        
  12827 ****        27.7500 -10.0000   4.7500 Du        
  12828 ****        27.7500 -10.0000   5.0000 Du        
  12829 ****        27.7500 -10.0000   5.2500 Du        
  12830 ****        27.7500 -10.0000   5.5000 Du        
  12831 ****        27.7500 -10.0000   5.7500 Du        
  12832 ****        27.7500 -10.0000   6.0000 Du        
  12833 ****        27.7500 -10.0000   6.2500 Du        
  12834 ****        27.7500  -9.7500  -0.2500 Du        
  12835 ****        27.7500  -9.7500   0.0000 Du        
  12836 ****        27.7500  -9.7500   0.2500 Du        
  12837 ****        27.7500  -9.7500   0.5000 Du        
  12838 ****        27.7500  -9.7500   0.7500 Du        
  12839 ****        27.7500  -9.7500   1.0000 Du        
  12840 ****        27.7500  -9.7500   1.2500 Du        
  12841 ****        27.7500  -9.7500   1.5000 Du        
  12842 ****        27.7500  -9.7500   1.7500 Du        
  12843 ****        27.7500  -9.7500   2.2500 Du        
  12844 ****        27.7500  -9.7500   2.7500 Du        
  12845 ****        27.7500  -9.7500   3.0000 Du        
  12846 ****        27.7500  -9.7500   3.2500 Du        
  12847 ****        27.7500  -9.7500   3.5000 Du        
  12848 ****        27.7500  -9.7500   3.7500 Du        
  12849 ****        27.7500  -9.7500   4.0000 Du        
  12850 ****        27.7500  -9.7500   4.2500 Du        
  12851 ****        27.7500  -9.7500   4.5000 Du        
  12852 ****        27.7500  -9.7500   4.7500 Du        
  12853 ****        27.7500  -9.7500   5.0000 Du        
  12854 ****        27.7500  -9.7500   5.2500 Du        
  12855 ****        27.7500  -9.7500   5.5000 Du        
  12856 ****        27.7500  -9.7500   5.7500 Du        
  12857 ****        27.7500  -9.7500   6.0000 Du        
  12858 ****        27.7500  -9.7500   6.2500 Du        
  12859 ****        27.7500  -9.5000  -0.2500 Du        
  12860 ****        27.7500  -9.5000   0.0000 Du        
  12861 ****        27.7500  -9.5000   0.2500 Du        
  12862 ****        27.7500  -9.5000   0.5000 Du        
  12863 ****        27.7500  -9.5000   0.7500 Du        
  12864 ****        27.7500  -9.5000   1.0000 Du        
  12865 ****        27.7500  -9.5000   1.2500 Du        
  12866 ****        27.7500  -9.5000   2.2500 Du        
  12867 ****        27.7500  -9.5000   2.5000 Du        
  12868 ****        27.7500  -9.5000   2.7500 Du        
  12869 ****        27.7500  -9.5000   3.0000 Du        
  12870 ****        27.7500  -9.5000   3.2500 Du        
  12871 ****        27.7500  -9.5000   3.5000 Du        
  12872 ****        27.7500  -9.5000   3.7500 Du        
  12873 ****        27.7500  -9.5000   4.0000 Du        
  12874 ****        27.7500  -9.5000   4.2500 Du        
  12875 ****        27.7500  -9.5000   4.5000 Du        
  12876 ****        27.7500  -9.5000   4.7500 Du        
  12877 ****        27.7500  -9.5000   5.0000 Du        
  12878 ****        27.7500  -9.5000   5.2500 Du        
  12879 ****        27.7500  -9.5000   5.5000 Du        
  12880 ****        27.7500  -9.5000   5.7500 Du        
  12881 ****        27.7500  -9.5000   6.0000 Du        
  12882 ****        27.7500  -9.2500   2.7500 Du        
  12883 ****        27.7500  -9.2500   3.0000 Du        
  12884 ****        27.7500  -9.2500   3.2500 Du        
  12885 ****        27.7500  -9.2500   3.5000 Du        
  12886 ****        27.7500  -9.2500   3.7500 Du        
  12887 ****        27.7500  -9.2500   4.0000 Du        
  12888 ****        27.7500  -9.2500   4.2500 Du        
  12889 ****        27.7500  -9.2500   4.5000 Du        
  12890 ****        27.7500  -9.2500   4.7500 Du        
  12891 ****        27.7500  -9.2500   5.0000 Du        
  12892 ****        27.7500  -9.2500   5.2500 Du        
  12893 ****        27.7500  -9.2500   5.5000 Du        
  12894 ****        27.7500  -9.0000   3.0000 Du        
  12895 ****        27.7500  -9.0000   3.2500 Du        
  12896 ****        27.7500  -9.0000   3.5000 Du        
  12897 ****        27.7500  -9.0000   3.7500 Du        
  12898 ****        27.7500  -9.0000   4.0000 Du        
  12899 ****        27.7500  -9.0000   4.2500 Du        
  12900 ****        27.7500  -9.0000   4.5000 Du        
  12901 ****        27.7500  -9.0000   4.7500 Du        
  12902 ****        27.7500  -9.0000   5.0000 Du        
  12903 ****        27.7500  -9.0000   5.2500 Du        
  12904 ****        27.7500  -8.7500   3.2500 Du        
  12905 ****        27.7500  -8.7500   3.5000 Du        
  12906 ****        27.7500  -8.7500   3.7500 Du        
  12907 ****        27.7500  -8.7500   4.0000 Du        
  12908 ****        27.7500  -8.7500   4.2500 Du        
  12909 ****        27.7500  -8.7500   4.5000 Du        
  12910 ****        27.7500  -8.7500   4.7500 Du        
  12911 ****        27.7500  -8.5000   3.5000 Du        
  12912 ****        27.7500  -8.5000   3.7500 Du        
  12913 ****        27.7500  -8.5000   4.0000 Du        
  12914 ****        27.7500  -8.5000   4.2500 Du        
  12915 ****        27.7500  -8.5000   4.5000 Du        
  12916 ****        27.7500  -8.2500   3.7500 Du        
  12917 ****        27.7500  -8.2500   4.0000 Du        
  12918 ****        27.7500  -8.2500   4.2500 Du        
  12919 ****        27.7500  -8.0000   3.7500 Du        
  12920 ****        27.7500  -8.0000   4.0000 Du        
  12921 ****        27.7500  -8.0000   4.2500 Du        
  12922 ****        27.7500  -7.7500   3.7500 Du        
  12923 ****        27.7500  -7.7500   4.0000 Du        
  12924 ****        27.7500  -7.5000   3.7500 Du        
  12925 ****        28.0000 -11.0000   4.7500 Du        
  12926 ****        28.0000 -11.0000   5.0000 Du        
  12927 ****        28.0000 -11.0000   5.2500 Du        
  12928 ****        28.0000 -10.7500   4.2500 Du        
  12929 ****        28.0000 -10.7500   4.5000 Du        
  12930 ****        28.0000 -10.7500   4.7500 Du        
  12931 ****        28.0000 -10.7500   5.0000 Du        
  12932 ****        28.0000 -10.7500   5.2500 Du        
  12933 ****        28.0000 -10.7500   5.5000 Du        
  12934 ****        28.0000 -10.7500   5.7500 Du        
  12935 ****        28.0000 -10.5000   4.0000 Du        
  12936 ****        28.0000 -10.5000   4.2500 Du        
  12937 ****        28.0000 -10.5000   4.5000 Du        
  12938 ****        28.0000 -10.5000   4.7500 Du        
  12939 ****        28.0000 -10.5000   5.0000 Du        
  12940 ****        28.0000 -10.5000   5.2500 Du        
  12941 ****        28.0000 -10.5000   5.5000 Du        
  12942 ****        28.0000 -10.5000   5.7500 Du        
  12943 ****        28.0000 -10.5000   6.0000 Du        
  12944 ****        28.0000 -10.2500   3.5000 Du        
  12945 ****        28.0000 -10.2500   3.7500 Du        
  12946 ****        28.0000 -10.2500   4.0000 Du        
  12947 ****        28.0000 -10.2500   4.2500 Du        
  12948 ****        28.0000 -10.2500   4.5000 Du        
  12949 ****        28.0000 -10.2500   4.7500 Du        
  12950 ****        28.0000 -10.2500   5.0000 Du        
  12951 ****        28.0000 -10.2500   5.2500 Du        
  12952 ****        28.0000 -10.2500   5.5000 Du        
  12953 ****        28.0000 -10.2500   5.7500 Du        
  12954 ****        28.0000 -10.2500   6.0000 Du        
  12955 ****        28.0000 -10.2500   6.2500 Du        
  12956 ****        28.0000 -10.0000   0.0000 Du        
  12957 ****        28.0000 -10.0000   0.2500 Du        
  12958 ****        28.0000 -10.0000   0.5000 Du        
  12959 ****        28.0000 -10.0000   0.7500 Du        
  12960 ****        28.0000 -10.0000   1.0000 Du        
  12961 ****        28.0000 -10.0000   3.0000 Du        
  12962 ****        28.0000 -10.0000   3.2500 Du        
  12963 ****        28.0000 -10.0000   3.5000 Du        
  12964 ****        28.0000 -10.0000   3.7500 Du        
  12965 ****        28.0000 -10.0000   4.0000 Du        
  12966 ****        28.0000 -10.0000   4.2500 Du        
  12967 ****        28.0000 -10.0000   4.5000 Du        
  12968 ****        28.0000 -10.0000   4.7500 Du        
  12969 ****        28.0000 -10.0000   5.0000 Du        
  12970 ****        28.0000 -10.0000   5.2500 Du        
  12971 ****        28.0000 -10.0000   5.5000 Du        
  12972 ****        28.0000 -10.0000   5.7500 Du        
  12973 ****        28.0000 -10.0000   6.0000 Du        
  12974 ****        28.0000 -10.0000   6.2500 Du        
  12975 ****        28.0000  -9.7500  -0.2500 Du        
  12976 ****        28.0000  -9.7500   0.0000 Du        
  12977 ****        28.0000  -9.7500   0.2500 Du        
  12978 ****        28.0000  -9.7500   0.5000 Du        
  12979 ****        28.0000  -9.7500   0.7500 Du        
  12980 ****        28.0000  -9.7500   1.0000 Du        
  12981 ****        28.0000  -9.7500   1.2500 Du        
  12982 ****        28.0000  -9.7500   1.5000 Du        
  12983 ****        28.0000  -9.7500   1.7500 Du        
  12984 ****        28.0000  -9.7500   2.0000 Du        
  12985 ****        28.0000  -9.7500   2.2500 Du        
  12986 ****        28.0000  -9.7500   2.7500 Du        
  12987 ****        28.0000  -9.7500   3.0000 Du        
  12988 ****        28.0000  -9.7500   3.2500 Du        
  12989 ****        28.0000  -9.7500   3.5000 Du        
  12990 ****        28.0000  -9.7500   3.7500 Du        
  12991 ****        28.0000  -9.7500   4.0000 Du        
  12992 ****        28.0000  -9.7500   4.2500 Du        
  12993 ****        28.0000  -9.7500   4.5000 Du        
  12994 ****        28.0000  -9.7500   4.7500 Du        
  12995 ****        28.0000  -9.7500   5.0000 Du        
  12996 ****        28.0000  -9.7500   5.2500 Du        
  12997 ****        28.0000  -9.7500   5.5000 Du        
  12998 ****        28.0000  -9.7500   5.7500 Du        
  12999 ****        28.0000  -9.7500   6.0000 Du        
  13000 ****        28.0000  -9.7500   6.2500 Du        
  13001 ****        28.0000  -9.5000   0.0000 Du        
  13002 ****        28.0000  -9.5000   0.2500 Du        
  13003 ****        28.0000  -9.5000   2.5000 Du        
  13004 ****        28.0000  -9.5000   2.7500 Du        
  13005 ****        28.0000  -9.5000   3.0000 Du        
  13006 ****        28.0000  -9.5000   3.2500 Du        
  13007 ****        28.0000  -9.5000   3.5000 Du        
  13008 ****        28.0000  -9.5000   3.7500 Du        
  13009 ****        28.0000  -9.5000   4.0000 Du        
  13010 ****        28.0000  -9.5000   4.2500 Du        
  13011 ****        28.0000  -9.5000   4.5000 Du        
  13012 ****        28.0000  -9.5000   4.7500 Du        
  13013 ****        28.0000  -9.5000   5.0000 Du        
  13014 ****        28.0000  -9.5000   5.2500 Du        
  13015 ****        28.0000  -9.5000   5.5000 Du        
  13016 ****        28.0000  -9.5000   5.7500 Du        
  13017 ****        28.0000  -9.5000   6.0000 Du        
  13018 ****        28.0000  -9.5000   6.2500 Du        
  13019 ****        28.0000  -9.2500   2.7500 Du        
  13020 ****        28.0000  -9.2500   3.0000 Du        
  13021 ****        28.0000  -9.2500   3.2500 Du        
  13022 ****        28.0000  -9.2500   3.5000 Du        
  13023 ****        28.0000  -9.2500   3.7500 Du        
  13024 ****        28.0000  -9.2500   4.0000 Du        
  13025 ****        28.0000  -9.2500   4.2500 Du        
  13026 ****        28.0000  -9.2500   4.5000 Du        
  13027 ****        28.0000  -9.2500   4.7500 Du        
  13028 ****        28.0000  -9.2500   5.0000 Du        
  13029 ****        28.0000  -9.2500   5.2500 Du        
  13030 ****        28.0000  -9.2500   5.5000 Du        
  13031 ****        28.0000  -9.2500   5.7500 Du        
  13032 ****        28.0000  -9.0000   3.2500 Du        
  13033 ****        28.0000  -9.0000   3.5000 Du        
  13034 ****        28.0000  -9.0000   3.7500 Du        
  13035 ****        28.0000  -9.0000   4.0000 Du        
  13036 ****        28.0000  -9.0000   4.2500 Du        
  13037 ****        28.0000  -9.0000   4.5000 Du        
  13038 ****        28.0000  -9.0000   4.7500 Du        
  13039 ****        28.0000  -9.0000   5.0000 Du        
  13040 ****        28.0000  -9.0000   5.2500 Du        
  13041 ****        28.0000  -9.0000   5.5000 Du        
  13042 ****        28.0000  -8.7500   3.5000 Du        
  13043 ****        28.0000  -8.7500   3.7500 Du        
  13044 ****        28.0000  -8.7500   4.0000 Du        
  13045 ****        28.0000  -8.7500   4.2500 Du        
  13046 ****        28.0000  -8.7500   4.5000 Du        
  13047 ****        28.0000  -8.7500   4.7500 Du        
  13048 ****        28.0000  -8.5000   3.7500 Du        
  13049 ****        28.0000  -8.5000   4.0000 Du        
  13050 ****        28.2500 -11.0000   4.7500 Du        
  13051 ****        28.2500 -11.0000   5.0000 Du        
  13052 ****        28.2500 -11.0000   5.2500 Du        
  13053 ****        28.2500 -10.7500   4.2500 Du        
  13054 ****        28.2500 -10.7500   4.5000 Du        
  13055 ****        28.2500 -10.7500   4.7500 Du        
  13056 ****        28.2500 -10.7500   5.0000 Du        
  13057 ****        28.2500 -10.7500   5.2500 Du        
  13058 ****        28.2500 -10.7500   5.5000 Du        
  13059 ****        28.2500 -10.7500   5.7500 Du        
  13060 ****        28.2500 -10.5000   4.0000 Du        
  13061 ****        28.2500 -10.5000   4.2500 Du        
  13062 ****        28.2500 -10.5000   4.5000 Du        
  13063 ****        28.2500 -10.5000   4.7500 Du        
  13064 ****        28.2500 -10.5000   5.0000 Du        
  13065 ****        28.2500 -10.5000   5.2500 Du        
  13066 ****        28.2500 -10.5000   5.5000 Du        
  13067 ****        28.2500 -10.5000   5.7500 Du        
  13068 ****        28.2500 -10.5000   6.0000 Du        
  13069 ****        28.2500 -10.2500   3.5000 Du        
  13070 ****        28.2500 -10.2500   3.7500 Du        
  13071 ****        28.2500 -10.2500   4.0000 Du        
  13072 ****        28.2500 -10.2500   4.2500 Du        
  13073 ****        28.2500 -10.2500   4.5000 Du        
  13074 ****        28.2500 -10.2500   4.7500 Du        
  13075 ****        28.2500 -10.2500   5.0000 Du        
  13076 ****        28.2500 -10.2500   5.2500 Du        
  13077 ****        28.2500 -10.2500   5.5000 Du        
  13078 ****        28.2500 -10.2500   5.7500 Du        
  13079 ****        28.2500 -10.2500   6.0000 Du        
  13080 ****        28.2500 -10.2500   6.2500 Du        
  13081 ****        28.2500 -10.0000   0.0000 Du        
  13082 ****        28.2500 -10.0000   0.2500 Du        
  13083 ****        28.2500 -10.0000   0.5000 Du        
  13084 ****        28.2500 -10.0000   0.7500 Du        
  13085 ****        28.2500 -10.0000   1.0000 Du        
  13086 ****        28.2500 -10.0000   3.0000 Du        
  13087 ****        28.2500 -10.0000   3.2500 Du        
  13088 ****        28.2500 -10.0000   3.5000 Du        
  13089 ****        28.2500 -10.0000   3.7500 Du        
  13090 ****        28.2500 -10.0000   4.0000 Du        
  13091 ****        28.2500 -10.0000   4.2500 Du        
  13092 ****        28.2500 -10.0000   4.5000 Du        
  13093 ****        28.2500 -10.0000   4.7500 Du        
  13094 ****        28.2500 -10.0000   5.0000 Du        
  13095 ****        28.2500 -10.0000   5.2500 Du        
  13096 ****        28.2500 -10.0000   5.5000 Du        
  13097 ****        28.2500 -10.0000   5.7500 Du        
  13098 ****        28.2500 -10.0000   6.0000 Du        
  13099 ****        28.2500 -10.0000   6.2500 Du        
  13100 ****        28.2500  -9.7500   0.0000 Du        
  13101 ****        28.2500  -9.7500   0.2500 Du        
  13102 ****        28.2500  -9.7500   0.5000 Du        
  13103 ****        28.2500  -9.7500   0.7500 Du        
  13104 ****        28.2500  -9.7500   1.0000 Du        
  13105 ****        28.2500  -9.7500   1.5000 Du        
  13106 ****        28.2500  -9.7500   1.7500 Du        
  13107 ****        28.2500  -9.7500   2.0000 Du        
  13108 ****        28.2500  -9.7500   2.2500 Du        
  13109 ****        28.2500  -9.7500   2.7500 Du        
  13110 ****        28.2500  -9.7500   3.0000 Du        
  13111 ****        28.2500  -9.7500   3.2500 Du        
  13112 ****        28.2500  -9.7500   3.5000 Du        
  13113 ****        28.2500  -9.7500   3.7500 Du        
  13114 ****        28.2500  -9.7500   4.0000 Du        
  13115 ****        28.2500  -9.7500   4.2500 Du        
  13116 ****        28.2500  -9.7500   4.5000 Du        
  13117 ****        28.2500  -9.7500   4.7500 Du        
  13118 ****        28.2500  -9.7500   5.0000 Du        
  13119 ****        28.2500  -9.7500   5.2500 Du        
  13120 ****        28.2500  -9.7500   5.5000 Du        
  13121 ****        28.2500  -9.7500   5.7500 Du        
  13122 ****        28.2500  -9.7500   6.0000 Du        
  13123 ****        28.2500  -9.7500   6.2500 Du        
  13124 ****        28.2500  -9.5000   2.7500 Du        
  13125 ****        28.2500  -9.5000   3.0000 Du        
  13126 ****        28.2500  -9.5000   3.2500 Du        
  13127 ****        28.2500  -9.5000   3.5000 Du        
  13128 ****        28.2500  -9.5000   3.7500 Du        
  13129 ****        28.2500  -9.5000   4.0000 Du        
  13130 ****        28.2500  -9.5000   4.2500 Du        
  13131 ****        28.2500  -9.5000   4.5000 Du        
  13132 ****        28.2500  -9.5000   4.7500 Du        
  13133 ****        28.2500  -9.5000   5.0000 Du        
  13134 ****        28.2500  -9.5000   5.2500 Du        
  13135 ****        28.2500  -9.5000   5.5000 Du        
  13136 ****        28.2500  -9.5000   5.7500 Du        
  13137 ****        28.2500  -9.5000   6.0000 Du        
  13138 ****        28.2500  -9.2500   3.2500 Du        
  13139 ****        28.2500  -9.2500   3.5000 Du        
  13140 ****        28.2500  -9.2500   3.7500 Du        
  13141 ****        28.2500  -9.2500   4.0000 Du        
  13142 ****        28.2500  -9.2500   4.2500 Du        
  13143 ****        28.2500  -9.2500   4.5000 Du        
  13144 ****        28.2500  -9.2500   4.7500 Du        
  13145 ****        28.2500  -9.2500   5.0000 Du        
  13146 ****        28.2500  -9.2500   5.2500 Du        
  13147 ****        28.2500  -9.2500   5.5000 Du        
  13148 ****        28.2500  -9.2500   5.7500 Du        
  13149 ****        28.2500  -9.2500   6.0000 Du        
  13150 ****        28.2500  -9.0000   3.5000 Du        
  13151 ****        28.2500  -9.0000   3.7500 Du        
  13152 ****        28.2500  -9.0000   4.0000 Du        
  13153 ****        28.2500  -9.0000   4.2500 Du        
  13154 ****        28.2500  -9.0000   4.5000 Du        
  13155 ****        28.2500  -9.0000   4.7500 Du        
  13156 ****        28.2500  -9.0000   5.0000 Du        
  13157 ****        28.2500  -9.0000   5.2500 Du        
  13158 ****        28.2500  -8.7500   3.7500 Du        
  13159 ****        28.2500  -8.7500   4.0000 Du        
  13160 ****        28.2500  -8.7500   4.2500 Du        
  13161 ****        28.5000 -11.0000   4.7500 Du        
  13162 ****        28.5000 -11.0000   5.0000 Du        
  13163 ****        28.5000 -11.0000   5.2500 Du        
  13164 ****        28.5000 -10.7500   4.5000 Du        
  13165 ****        28.5000 -10.7500   4.7500 Du        
  13166 ****        28.5000 -10.7500   5.0000 Du        
  13167 ****        28.5000 -10.7500   5.2500 Du        
  13168 ****        28.5000 -10.7500   5.5000 Du        
  13169 ****        28.5000 -10.7500   5.7500 Du        
  13170 ****        28.5000 -10.5000   4.0000 Du        
  13171 ****        28.5000 -10.5000   4.2500 Du        
  13172 ****        28.5000 -10.5000   4.5000 Du        
  13173 ****        28.5000 -10.5000   4.7500 Du        
  13174 ****        28.5000 -10.5000   5.0000 Du        
  13175 ****        28.5000 -10.5000   5.2500 Du        
  13176 ****        28.5000 -10.5000   5.5000 Du        
  13177 ****        28.5000 -10.5000   5.7500 Du        
  13178 ****        28.5000 -10.2500   3.5000 Du        
  13179 ****        28.5000 -10.2500   3.7500 Du        
  13180 ****        28.5000 -10.2500   4.0000 Du        
  13181 ****        28.5000 -10.2500   4.2500 Du        
  13182 ****        28.5000 -10.2500   4.5000 Du        
  13183 ****        28.5000 -10.2500   4.7500 Du        
  13184 ****        28.5000 -10.2500   5.0000 Du        
  13185 ****        28.5000 -10.2500   5.2500 Du        
  13186 ****        28.5000 -10.2500   5.5000 Du        
  13187 ****        28.5000 -10.2500   5.7500 Du        
  13188 ****        28.5000 -10.2500   6.0000 Du        
  13189 ****        28.5000 -10.0000   0.2500 Du        
  13190 ****        28.5000 -10.0000   0.5000 Du        
  13191 ****        28.5000 -10.0000   0.7500 Du        
  13192 ****        28.5000 -10.0000   1.0000 Du        
  13193 ****        28.5000 -10.0000   1.2500 Du        
  13194 ****        28.5000 -10.0000   2.7500 Du        
  13195 ****        28.5000 -10.0000   3.0000 Du        
  13196 ****        28.5000 -10.0000   3.2500 Du        
  13197 ****        28.5000 -10.0000   3.5000 Du        
  13198 ****        28.5000 -10.0000   3.7500 Du        
  13199 ****        28.5000 -10.0000   4.0000 Du        
  13200 ****        28.5000 -10.0000   4.2500 Du        
  13201 ****        28.5000 -10.0000   4.5000 Du        
  13202 ****        28.5000 -10.0000   4.7500 Du        
  13203 ****        28.5000 -10.0000   5.0000 Du        
  13204 ****        28.5000 -10.0000   5.2500 Du        
  13205 ****        28.5000 -10.0000   5.5000 Du        
  13206 ****        28.5000 -10.0000   5.7500 Du        
  13207 ****        28.5000 -10.0000   6.0000 Du        
  13208 ****        28.5000  -9.7500   1.2500 Du        
  13209 ****        28.5000  -9.7500   2.7500 Du        
  13210 ****        28.5000  -9.7500   3.0000 Du        
  13211 ****        28.5000  -9.7500   3.2500 Du        
  13212 ****        28.5000  -9.7500   3.5000 Du        
  13213 ****        28.5000  -9.7500   3.7500 Du        
  13214 ****        28.5000  -9.7500   4.0000 Du        
  13215 ****        28.5000  -9.7500   4.2500 Du        
  13216 ****        28.5000  -9.7500   4.5000 Du        
  13217 ****        28.5000  -9.7500   4.7500 Du        
  13218 ****        28.5000  -9.7500   5.0000 Du        
  13219 ****        28.5000  -9.7500   5.2500 Du        
  13220 ****        28.5000  -9.7500   5.5000 Du        
  13221 ****        28.5000  -9.7500   5.7500 Du        
  13222 ****        28.5000  -9.7500   6.0000 Du        
  13223 ****        28.5000  -9.5000   2.7500 Du        
  13224 ****        28.5000  -9.5000   3.0000 Du        
  13225 ****        28.5000  -9.5000   3.2500 Du        
  13226 ****        28.5000  -9.5000   3.5000 Du        
  13227 ****        28.5000  -9.5000   3.7500 Du        
  13228 ****        28.5000  -9.5000   4.0000 Du        
  13229 ****        28.5000  -9.5000   4.2500 Du        
  13230 ****        28.5000  -9.5000   4.5000 Du        
  13231 ****        28.5000  -9.5000   4.7500 Du        
  13232 ****        28.5000  -9.5000   5.0000 Du        
  13233 ****        28.5000  -9.5000   5.2500 Du        
  13234 ****        28.5000  -9.5000   5.5000 Du        
  13235 ****        28.5000  -9.5000   5.7500 Du        
  13236 ****        28.5000  -9.2500   3.2500 Du        
  13237 ****        28.5000  -9.2500   3.5000 Du        
  13238 ****        28.5000  -9.2500   3.7500 Du        
  13239 ****        28.5000  -9.2500   4.0000 Du        
  13240 ****        28.5000  -9.2500   4.2500 Du        
  13241 ****        28.5000  -9.2500   4.5000 Du        
  13242 ****        28.5000  -9.2500   4.7500 Du        
  13243 ****        28.5000  -9.2500   5.0000 Du        
  13244 ****        28.5000  -9.2500   5.2500 Du        
  13245 ****        28.5000  -9.2500   5.5000 Du        
  13246 ****        28.5000  -9.0000   3.7500 Du        
  13247 ****        28.5000  -9.0000   4.0000 Du        
  13248 ****        28.5000  -9.0000   4.2500 Du        
  13249 ****        28.5000  -9.0000   4.5000 Du        
  13250 ****        28.7500 -11.0000   5.0000 Du        
  13251 ****        28.7500 -11.0000   5.2500 Du        
  13252 ****        28.7500 -10.7500   4.5000 Du        
  13253 ****        28.7500 -10.7500   4.7500 Du        
  13254 ****        28.7500 -10.7500   5.0000 Du        
  13255 ****        28.7500 -10.7500   5.2500 Du        
  13256 ****        28.7500 -10.7500   5.5000 Du        
  13257 ****        28.7500 -10.5000   4.0000 Du        
  13258 ****        28.7500 -10.5000   4.2500 Du        
  13259 ****        28.7500 -10.5000   4.5000 Du        
  13260 ****        28.7500 -10.5000   4.7500 Du        
  13261 ****        28.7500 -10.5000   5.0000 Du        
  13262 ****        28.7500 -10.5000   5.2500 Du        
  13263 ****        28.7500 -10.5000   5.5000 Du        
  13264 ****        28.7500 -10.5000   5.7500 Du        
  13265 ****        28.7500 -10.2500   3.5000 Du        
  13266 ****        28.7500 -10.2500   3.7500 Du        
  13267 ****        28.7500 -10.2500   4.0000 Du        
  13268 ****        28.7500 -10.2500   4.2500 Du        
  13269 ****        28.7500 -10.2500   4.5000 Du        
  13270 ****        28.7500 -10.2500   4.7500 Du        
  13271 ****        28.7500 -10.2500   5.0000 Du        
  13272 ****        28.7500 -10.2500   5.2500 Du        
  13273 ****        28.7500 -10.2500   5.5000 Du        
  13274 ****        28.7500 -10.2500   5.7500 Du        
  13275 ****        28.7500 -10.2500   6.0000 Du        
  13276 ****        28.7500 -10.0000   0.7500 Du        
  13277 ****        28.7500 -10.0000   1.0000 Du        
  13278 ****        28.7500 -10.0000   1.2500 Du        
  13279 ****        28.7500 -10.0000   1.5000 Du        
  13280 ****        28.7500 -10.0000   1.7500 Du        
  13281 ****        28.7500 -10.0000   2.0000 Du        
  13282 ****        28.7500 -10.0000   2.7500 Du        
  13283 ****        28.7500 -10.0000   3.0000 Du        
  13284 ****        28.7500 -10.0000   3.2500 Du        
  13285 ****        28.7500 -10.0000   3.5000 Du        
  13286 ****        28.7500 -10.0000   3.7500 Du        
  13287 ****        28.7500 -10.0000   4.0000 Du        
  13288 ****        28.7500 -10.0000   4.2500 Du        
  13289 ****        28.7500 -10.0000   4.5000 Du        
  13290 ****        28.7500 -10.0000   4.7500 Du        
  13291 ****        28.7500 -10.0000   5.0000 Du        
  13292 ****        28.7500 -10.0000   5.2500 Du        
  13293 ****        28.7500 -10.0000   5.5000 Du        
  13294 ****        28.7500 -10.0000   5.7500 Du        
  13295 ****        28.7500 -10.0000   6.0000 Du        
  13296 ****        28.7500  -9.7500   2.2500 Du        
  13297 ****        28.7500  -9.7500   2.5000 Du        
  13298 ****        28.7500  -9.7500   2.7500 Du        
  13299 ****        28.7500  -9.7500   3.0000 Du        
  13300 ****        28.7500  -9.7500   3.2500 Du        
  13301 ****        28.7500  -9.7500   3.5000 Du        
  13302 ****        28.7500  -9.7500   3.7500 Du        
  13303 ****        28.7500  -9.7500   4.0000 Du        
  13304 ****        28.7500  -9.7500   4.2500 Du        
  13305 ****        28.7500  -9.7500   4.5000 Du        
  13306 ****        28.7500  -9.7500   4.7500 Du        
  13307 ****        28.7500  -9.7500   5.0000 Du        
  13308 ****        28.7500  -9.7500   5.2500 Du        
  13309 ****        28.7500  -9.7500   5.5000 Du        
  13310 ****        28.7500  -9.7500   5.7500 Du        
  13311 ****        28.7500  -9.5000   3.0000 Du        
  13312 ****        28.7500  -9.5000   3.2500 Du        
  13313 ****        28.7500  -9.5000   3.5000 Du        
  13314 ****        28.7500  -9.5000   3.7500 Du        
  13315 ****        28.7500  -9.5000   4.0000 Du        
  13316 ****        28.7500  -9.5000   4.2500 Du        
  13317 ****        28.7500  -9.5000   4.5000 Du        
  13318 ****        28.7500  -9.5000   4.7500 Du        
  13319 ****        28.7500  -9.5000   5.0000 Du        
  13320 ****        28.7500  -9.5000   5.2500 Du        
  13321 ****        28.7500  -9.5000   5.5000 Du        
  13322 ****        28.7500  -9.2500   3.5000 Du        
  13323 ****        28.7500  -9.2500   3.7500 Du        
  13324 ****        28.7500  -9.2500   4.0000 Du        
  13325 ****        28.7500  -9.2500   4.2500 Du        
  13326 ****        28.7500  -9.2500   4.5000 Du        
  13327 ****        28.7500  -9.2500   4.7500 Du        
  13328 ****        28.7500  -9.2500   5.0000 Du        
  13329 ****        29.0000 -11.0000   5.0000 Du        
  13330 ****        29.0000 -11.0000   5.2500 Du        
  13331 ****        29.0000 -10.7500   4.5000 Du        
  13332 ****        29.0000 -10.7500   4.7500 Du        
  13333 ****        29.0000 -10.7500   5.0000 Du        
  13334 ****        29.0000 -10.7500   5.2500 Du        
  13335 ****        29.0000 -10.7500   5.5000 Du        
  13336 ****        29.0000 -10.5000   4.2500 Du        
  13337 ****        29.0000 -10.5000   4.5000 Du        
  13338 ****        29.0000 -10.5000   4.7500 Du        
  13339 ****        29.0000 -10.5000   5.0000 Du        
  13340 ****        29.0000 -10.5000   5.2500 Du        
  13341 ****        29.0000 -10.5000   5.5000 Du        
  13342 ****        29.0000 -10.5000   5.7500 Du        
  13343 ****        29.0000 -10.2500   1.0000 Du        
  13344 ****        29.0000 -10.2500   1.2500 Du        
  13345 ****        29.0000 -10.2500   3.5000 Du        
  13346 ****        29.0000 -10.2500   3.7500 Du        
  13347 ****        29.0000 -10.2500   4.0000 Du        
  13348 ****        29.0000 -10.2500   4.2500 Du        
  13349 ****        29.0000 -10.2500   4.5000 Du        
  13350 ****        29.0000 -10.2500   4.7500 Du        
  13351 ****        29.0000 -10.2500   5.0000 Du        
  13352 ****        29.0000 -10.2500   5.2500 Du        
  13353 ****        29.0000 -10.2500   5.5000 Du        
  13354 ****        29.0000 -10.2500   5.7500 Du        
  13355 ****        29.0000 -10.0000   1.0000 Du        
  13356 ****        29.0000 -10.0000   1.2500 Du        
  13357 ****        29.0000 -10.0000   1.5000 Du        
  13358 ****        29.0000 -10.0000   1.7500 Du        
  13359 ****        29.0000 -10.0000   2.0000 Du        
  13360 ****        29.0000 -10.0000   2.2500 Du        
  13361 ****        29.0000 -10.0000   2.5000 Du        
  13362 ****        29.0000 -10.0000   2.7500 Du        
  13363 ****        29.0000 -10.0000   3.0000 Du        
  13364 ****        29.0000 -10.0000   3.2500 Du        
  13365 ****        29.0000 -10.0000   3.5000 Du        
  13366 ****        29.0000 -10.0000   3.7500 Du        
  13367 ****        29.0000 -10.0000   4.0000 Du        
  13368 ****        29.0000 -10.0000   4.2500 Du        
  13369 ****        29.0000 -10.0000   4.5000 Du        
  13370 ****        29.0000 -10.0000   4.7500 Du        
  13371 ****        29.0000 -10.0000   5.0000 Du        
  13372 ****        29.0000 -10.0000   5.2500 Du        
  13373 ****        29.0000 -10.0000   5.5000 Du        
  13374 ****        29.0000 -10.0000   5.7500 Du        
  13375 ****        29.0000  -9.7500   2.5000 Du        
  13376 ****        29.0000  -9.7500   2.7500 Du        
  13377 ****        29.0000  -9.7500   3.0000 Du        
  13378 ****        29.0000  -9.7500   3.2500 Du        
  13379 ****        29.0000  -9.7500   3.5000 Du        
  13380 ****        29.0000  -9.7500   3.7500 Du        
  13381 ****        29.0000  -9.7500   4.0000 Du        
  13382 ****        29.0000  -9.7500   4.2500 Du        
  13383 ****        29.0000  -9.7500   4.5000 Du        
  13384 ****        29.0000  -9.7500   4.7500 Du        
  13385 ****        29.0000  -9.7500   5.0000 Du        
  13386 ****        29.0000  -9.7500   5.2500 Du        
  13387 ****        29.0000  -9.7500   5.5000 Du        
  13388 ****        29.0000  -9.5000   3.0000 Du        
  13389 ****        29.0000  -9.5000   3.2500 Du        
  13390 ****        29.0000  -9.5000   3.5000 Du        
  13391 ****        29.0000  -9.5000   3.7500 Du        
  13392 ****        29.0000  -9.5000   4.0000 Du        
  13393 ****        29.0000  -9.5000   4.2500 Du        
  13394 ****        29.0000  -9.5000   4.5000 Du        
  13395 ****        29.0000  -9.5000   4.7500 Du        
  13396 ****        29.0000  -9.5000   5.0000 Du        
  13397 ****        29.0000  -9.5000   5.2500 Du        
  13398 ****        29.2500 -11.0000   5.0000 Du        
  13399 ****        29.2500 -11.0000   5.2500 Du        
  13400 ****        29.2500 -10.7500   4.5000 Du        
  13401 ****        29.2500 -10.7500   4.7500 Du        
  13402 ****        29.2500 -10.7500   5.0000 Du        
  13403 ****        29.2500 -10.7500   5.2500 Du        
  13404 ****        29.2500 -10.7500   5.5000 Du        
  13405 ****        29.2500 -10.5000   4.2500 Du        
  13406 ****        29.2500 -10.5000   4.5000 Du        
  13407 ****        29.2500 -10.5000   4.7500 Du        
  13408 ****        29.2500 -10.5000   5.0000 Du        
  13409 ****        29.2500 -10.5000   5.2500 Du        
  13410 ****        29.2500 -10.5000   5.5000 Du        
  13411 ****        29.2500 -10.5000   5.7500 Du        
  13412 ****        29.2500 -10.2500   1.2500 Du        
  13413 ****        29.2500 -10.2500   1.5000 Du        
  13414 ****        29.2500 -10.2500   1.7500 Du        
  13415 ****        29.2500 -10.2500   3.5000 Du        
  13416 ****        29.2500 -10.2500   3.7500 Du        
  13417 ****        29.2500 -10.2500   4.0000 Du        
  13418 ****        29.2500 -10.2500   4.2500 Du        
  13419 ****        29.2500 -10.2500   4.5000 Du        
  13420 ****        29.2500 -10.2500   4.7500 Du        
  13421 ****        29.2500 -10.2500   5.0000 Du        
  13422 ****        29.2500 -10.2500   5.2500 Du        
  13423 ****        29.2500 -10.2500   5.5000 Du        
  13424 ****        29.2500 -10.2500   5.7500 Du        
  13425 ****        29.2500 -10.0000   1.0000 Du        
  13426 ****        29.2500 -10.0000   1.2500 Du        
  13427 ****        29.2500 -10.0000   1.5000 Du        
  13428 ****        29.2500 -10.0000   1.7500 Du        
  13429 ****        29.2500 -10.0000   2.0000 Du        
  13430 ****        29.2500 -10.0000   2.2500 Du        
  13431 ****        29.2500 -10.0000   2.5000 Du        
  13432 ****        29.2500 -10.0000   2.7500 Du        
  13433 ****        29.2500 -10.0000   3.0000 Du        
  13434 ****        29.2500 -10.0000   3.2500 Du        
  13435 ****        29.2500 -10.0000   3.5000 Du        
  13436 ****        29.2500 -10.0000   3.7500 Du        
  13437 ****        29.2500 -10.0000   4.0000 Du        
  13438 ****        29.2500 -10.0000   4.2500 Du        
  13439 ****        29.2500 -10.0000   4.5000 Du        
  13440 ****        29.2500 -10.0000   4.7500 Du        
  13441 ****        29.2500 -10.0000   5.0000 Du        
  13442 ****        29.2500 -10.0000   5.2500 Du        
  13443 ****        29.2500 -10.0000   5.5000 Du        
  13444 ****        29.2500  -9.7500   2.5000 Du        
  13445 ****        29.2500  -9.7500   2.7500 Du        
  13446 ****        29.2500  -9.7500   3.0000 Du        
  13447 ****        29.2500  -9.7500   3.2500 Du        
  13448 ****        29.2500  -9.7500   3.5000 Du        
  13449 ****        29.2500  -9.7500   3.7500 Du        
  13450 ****        29.2500  -9.7500   4.0000 Du        
  13451 ****        29.2500  -9.7500   4.2500 Du        
  13452 ****        29.2500  -9.7500   4.5000 Du        
  13453 ****        29.2500  -9.7500   4.7500 Du        
  13454 ****        29.2500  -9.7500   5.0000 Du        
  13455 ****        29.2500  -9.7500   5.2500 Du        
  13456 ****        29.2500  -9.7500   5.5000 Du        
  13457 ****        29.2500  -9.5000   3.7500 Du        
  13458 ****        29.2500  -9.5000   4.0000 Du        
  13459 ****        29.2500  -9.5000   4.2500 Du        
  13460 ****        29.2500  -9.5000   4.5000 Du        
  13461 ****        29.2500  -9.5000   4.7500 Du        
  13462 ****        29.2500  -9.5000   5.0000 Du        
  13463 ****        29.5000 -11.0000   5.0000 Du        
  13464 ****        29.5000 -11.0000   5.2500 Du        
  13465 ****        29.5000 -10.7500   4.7500 Du        
  13466 ****        29.5000 -10.7500   5.0000 Du        
  13467 ****        29.5000 -10.7500   5.2500 Du        
  13468 ****        29.5000 -10.7500   5.5000 Du        
  13469 ****        29.5000 -10.5000   4.2500 Du        
  13470 ****        29.5000 -10.5000   4.5000 Du        
  13471 ****        29.5000 -10.5000   4.7500 Du        
  13472 ****        29.5000 -10.5000   5.0000 Du        
  13473 ****        29.5000 -10.5000   5.2500 Du        
  13474 ****        29.5000 -10.5000   5.5000 Du        
  13475 ****        29.5000 -10.2500   1.2500 Du        
  13476 ****        29.5000 -10.2500   1.5000 Du        
  13477 ****        29.5000 -10.2500   1.7500 Du        
  13478 ****        29.5000 -10.2500   2.0000 Du        
  13479 ****        29.5000 -10.2500   3.7500 Du        
  13480 ****        29.5000 -10.2500   4.0000 Du        
  13481 ****        29.5000 -10.2500   4.2500 Du        
  13482 ****        29.5000 -10.2500   4.5000 Du        
  13483 ****        29.5000 -10.2500   4.7500 Du        
  13484 ****        29.5000 -10.2500   5.0000 Du        
  13485 ****        29.5000 -10.2500   5.2500 Du        
  13486 ****        29.5000 -10.2500   5.5000 Du        
  13487 ****        29.5000 -10.0000   1.0000 Du        
  13488 ****        29.5000 -10.0000   1.2500 Du        
  13489 ****        29.5000 -10.0000   1.5000 Du        
  13490 ****        29.5000 -10.0000   1.7500 Du        
  13491 ****        29.5000 -10.0000   2.0000 Du        
  13492 ****        29.5000 -10.0000   2.2500 Du        
  13493 ****        29.5000 -10.0000   2.5000 Du        
  13494 ****        29.5000 -10.0000   2.7500 Du        
  13495 ****        29.5000 -10.0000   3.0000 Du        
  13496 ****        29.5000 -10.0000   3.2500 Du        
  13497 ****        29.5000 -10.0000   3.5000 Du        
  13498 ****        29.5000 -10.0000   3.7500 Du        
  13499 ****        29.5000 -10.0000   4.0000 Du        
  13500 ****        29.5000 -10.0000   4.2500 Du        
  13501 ****        29.5000 -10.0000   4.5000 Du        
  13502 ****        29.5000 -10.0000   4.7500 Du        
  13503 ****        29.5000 -10.0000   5.0000 Du        
  13504 ****        29.5000 -10.0000   5.2500 Du        
  13505 ****        29.5000 -10.0000   5.5000 Du        
  13506 ****        29.5000  -9.7500   3.5000 Du        
  13507 ****        29.5000  -9.7500   3.7500 Du        
  13508 ****        29.5000  -9.7500   4.0000 Du        
  13509 ****        29.5000  -9.7500   4.2500 Du        
  13510 ****        29.5000  -9.7500   4.5000 Du        
  13511 ****        29.5000  -9.7500   4.7500 Du        
  13512 ****        29.5000  -9.7500   5.0000 Du        
  13513 ****        29.5000  -9.7500   5.2500 Du        
  13514 ****        29.7500 -11.0000   5.0000 Du        
  13515 ****        29.7500 -10.7500   4.5000 Du        
  13516 ****        29.7500 -10.7500   4.7500 Du        
  13517 ****        29.7500 -10.7500   5.0000 Du        
  13518 ****        29.7500 -10.7500   5.2500 Du        
  13519 ****        29.7500 -10.7500   5.5000 Du        
  13520 ****        29.7500 -10.5000   4.2500 Du        
  13521 ****        29.7500 -10.5000   4.5000 Du        
  13522 ****        29.7500 -10.5000   4.7500 Du        
  13523 ****        29.7500 -10.5000   5.0000 Du        
  13524 ****        29.7500 -10.5000   5.2500 Du        
  13525 ****        29.7500 -10.5000   5.5000 Du        
  13526 ****        29.7500 -10.2500   1.2500 Du        
  13527 ****        29.7500 -10.2500   1.5000 Du        
  13528 ****        29.7500 -10.2500   1.7500 Du        
  13529 ****        29.7500 -10.2500   2.0000 Du        
  13530 ****        29.7500 -10.2500   2.2500 Du        
  13531 ****        29.7500 -10.2500   3.5000 Du        
  13532 ****        29.7500 -10.2500   3.7500 Du        
  13533 ****        29.7500 -10.2500   4.0000 Du        
  13534 ****        29.7500 -10.2500   4.2500 Du        
  13535 ****        29.7500 -10.2500   4.5000 Du        
  13536 ****        29.7500 -10.2500   4.7500 Du        
  13537 ****        29.7500 -10.2500   5.0000 Du        
  13538 ****        29.7500 -10.2500   5.2500 Du        
  13539 ****        29.7500 -10.2500   5.5000 Du        
  13540 ****        29.7500 -10.0000   1.2500 Du        
  13541 ****        29.7500 -10.0000   1.5000 Du        
  13542 ****        29.7500 -10.0000   1.7500 Du        
  13543 ****        29.7500 -10.0000   2.0000 Du        
  13544 ****        29.7500 -10.0000   2.2500 Du        
  13545 ****        29.7500 -10.0000   2.5000 Du        
  13546 ****        29.7500 -10.0000   2.7500 Du        
  13547 ****        29.7500 -10.0000   3.0000 Du        
  13548 ****        29.7500 -10.0000   3.2500 Du        
  13549 ****        29.7500 -10.0000   3.5000 Du        
  13550 ****        29.7500 -10.0000   3.7500 Du        
  13551 ****        29.7500 -10.0000   4.0000 Du        
  13552 ****        29.7500 -10.0000   4.2500 Du        
  13553 ****        29.7500 -10.0000   4.5000 Du        
  13554 ****        29.7500 -10.0000   4.7500 Du        
  13555 ****        29.7500 -10.0000   5.0000 Du        
  13556 ****        29.7500 -10.0000   5.2500 Du        
  13557 ****        29.7500 -10.0000   5.5000 Du        
  13558 ****        29.7500  -9.7500   1.7500 Du        
  13559 ****        29.7500  -9.7500   2.0000 Du        
  13560 ****        29.7500  -9.7500   3.7500 Du        
  13561 ****        29.7500  -9.7500   4.0000 Du        
  13562 ****        29.7500  -9.7500   4.2500 Du        
  13563 ****        29.7500  -9.7500   4.5000 Du        
  13564 ****        29.7500  -9.7500   4.7500 Du        
  13565 ****        29.7500  -9.7500   5.0000 Du        
  13566 ****        29.7500  -9.7500   5.2500 Du        
  13567 ****        30.0000 -11.0000   5.0000 Du        
  13568 ****        30.0000 -10.7500   4.5000 Du        
  13569 ****        30.0000 -10.7500   4.7500 Du        
  13570 ****        30.0000 -10.7500   5.0000 Du        
  13571 ****        30.0000 -10.7500   5.2500 Du        
  13572 ****        30.0000 -10.7500   5.5000 Du        
  13573 ****        30.0000 -10.5000   1.5000 Du        
  13574 ****        30.0000 -10.5000   1.7500 Du        
  13575 ****        30.0000 -10.5000   4.0000 Du        
  13576 ****        30.0000 -10.5000   4.2500 Du        
  13577 ****        30.0000 -10.5000   4.5000 Du        
  13578 ****        30.0000 -10.5000   4.7500 Du        
  13579 ****        30.0000 -10.5000   5.0000 Du        
  13580 ****        30.0000 -10.5000   5.2500 Du        
  13581 ****        30.0000 -10.5000   5.5000 Du        
  13582 ****        30.0000 -10.2500   1.2500 Du        
  13583 ****        30.0000 -10.2500   1.5000 Du        
  13584 ****        30.0000 -10.2500   1.7500 Du        
  13585 ****        30.0000 -10.2500   2.0000 Du        
  13586 ****        30.0000 -10.2500   2.2500 Du        
  13587 ****        30.0000 -10.2500   3.5000 Du        
  13588 ****        30.0000 -10.2500   3.7500 Du        
  13589 ****        30.0000 -10.2500   4.0000 Du        
  13590 ****        30.0000 -10.2500   4.2500 Du        
  13591 ****        30.0000 -10.2500   4.5000 Du        
  13592 ****        30.0000 -10.2500   4.7500 Du        
  13593 ****        30.0000 -10.2500   5.0000 Du        
  13594 ****        30.0000 -10.2500   5.2500 Du        
  13595 ****        30.0000 -10.2500   5.5000 Du        
  13596 ****        30.0000 -10.0000   1.2500 Du        
  13597 ****        30.0000 -10.0000   1.5000 Du        
  13598 ****        30.0000 -10.0000   1.7500 Du        
  13599 ****        30.0000 -10.0000   2.0000 Du        
  13600 ****        30.0000 -10.0000   2.2500 Du        
  13601 ****        30.0000 -10.0000   2.5000 Du        
  13602 ****        30.0000 -10.0000   2.7500 Du        
  13603 ****        30.0000 -10.0000   3.0000 Du        
  13604 ****        30.0000 -10.0000   3.2500 Du        
  13605 ****        30.0000 -10.0000   3.5000 Du        
  13606 ****        30.0000 -10.0000   3.7500 Du        
  13607 ****        30.0000 -10.0000   4.0000 Du        
  13608 ****        30.0000 -10.0000   4.2500 Du        
  13609 ****        30.0000 -10.0000   4.5000 Du        
  13610 ****        30.0000 -10.0000   4.7500 Du        
  13611 ****        30.0000 -10.0000   5.0000 Du        
  13612 ****        30.0000 -10.0000   5.2500 Du        
  13613 ****        30.0000 -10.0000   5.5000 Du        
  13614 ****        30.0000  -9.7500   1.5000 Du        
  13615 ****        30.0000  -9.7500   1.7500 Du        
  13616 ****        30.0000  -9.7500   2.0000 Du        
  13617 ****        30.0000  -9.7500   4.0000 Du        
  13618 ****        30.0000  -9.7500   4.2500 Du        
  13619 ****        30.0000  -9.7500   4.5000 Du        
  13620 ****        30.0000  -9.7500   4.7500 Du        
  13621 ****        30.0000  -9.7500   5.0000 Du        
  13622 ****        30.0000  -9.7500   5.2500 Du        
  13623 ****        30.2500 -11.0000   4.7500 Du        
  13624 ****        30.2500 -11.0000   5.0000 Du        
  13625 ****        30.2500 -10.7500   4.5000 Du        
  13626 ****        30.2500 -10.7500   4.7500 Du        
  13627 ****        30.2500 -10.7500   5.0000 Du        
  13628 ****        30.2500 -10.7500   5.2500 Du        
  13629 ****        30.2500 -10.5000   1.5000 Du        
  13630 ****        30.2500 -10.5000   1.7500 Du        
  13631 ****        30.2500 -10.5000   2.0000 Du        
  13632 ****        30.2500 -10.5000   4.0000 Du        
  13633 ****        30.2500 -10.5000   4.2500 Du        
  13634 ****        30.2500 -10.5000   4.5000 Du        
  13635 ****        30.2500 -10.5000   4.7500 Du        
  13636 ****        30.2500 -10.5000   5.0000 Du        
  13637 ****        30.2500 -10.5000   5.2500 Du        
  13638 ****        30.2500 -10.5000   5.5000 Du        
  13639 ****        30.2500 -10.2500   1.2500 Du        
  13640 ****        30.2500 -10.2500   1.5000 Du        
  13641 ****        30.2500 -10.2500   1.7500 Du        
  13642 ****        30.2500 -10.2500   2.0000 Du        
  13643 ****        30.2500 -10.2500   2.2500 Du        
  13644 ****        30.2500 -10.2500   2.5000 Du        
  13645 ****        30.2500 -10.2500   2.7500 Du        
  13646 ****        30.2500 -10.2500   3.0000 Du        
  13647 ****        30.2500 -10.2500   3.2500 Du        
  13648 ****        30.2500 -10.2500   3.5000 Du        
  13649 ****        30.2500 -10.2500   3.7500 Du        
  13650 ****        30.2500 -10.2500   4.0000 Du        
  13651 ****        30.2500 -10.2500   4.2500 Du        
  13652 ****        30.2500 -10.2500   4.5000 Du        
  13653 ****        30.2500 -10.2500   4.7500 Du        
  13654 ****        30.2500 -10.2500   5.0000 Du        
  13655 ****        30.2500 -10.2500   5.2500 Du        
  13656 ****        30.2500 -10.2500   5.5000 Du        
  13657 ****        30.2500 -10.0000   1.2500 Du        
  13658 ****        30.2500 -10.0000   1.5000 Du        
  13659 ****        30.2500 -10.0000   1.7500 Du        
  13660 ****        30.2500 -10.0000   2.0000 Du        
  13661 ****        30.2500 -10.0000   2.2500 Du        
  13662 ****        30.2500 -10.0000   2.5000 Du        
  13663 ****        30.2500 -10.0000   3.7500 Du        
  13664 ****        30.2500 -10.0000   4.0000 Du        
  13665 ****        30.2500 -10.0000   4.2500 Du        
  13666 ****        30.2500 -10.0000   4.5000 Du        
  13667 ****        30.2500 -10.0000   4.7500 Du        
  13668 ****        30.2500 -10.0000   5.0000 Du        
  13669 ****        30.2500 -10.0000   5.2500 Du        
  13670 ****        30.2500 -10.0000   5.5000 Du        
  13671 ****        30.2500  -9.7500   1.2500 Du        
  13672 ****        30.2500  -9.7500   1.5000 Du        
  13673 ****        30.2500  -9.7500   1.7500 Du        
  13674 ****        30.2500  -9.7500   2.0000 Du        
  13675 ****        30.2500  -9.7500   4.2500 Du        
  13676 ****        30.2500  -9.7500   4.5000 Du        
  13677 ****        30.2500  -9.7500   4.7500 Du        
  13678 ****        30.2500  -9.7500   5.0000 Du        
  13679 ****        30.5000 -11.0000   4.7500 Du        
  13680 ****        30.5000 -10.7500   4.2500 Du        
  13681 ****        30.5000 -10.7500   4.5000 Du        
  13682 ****        30.5000 -10.7500   4.7500 Du        
  13683 ****        30.5000 -10.7500   5.0000 Du        
  13684 ****        30.5000 -10.7500   5.2500 Du        
  13685 ****        30.5000 -10.5000   1.5000 Du        
  13686 ****        30.5000 -10.5000   1.7500 Du        
  13687 ****        30.5000 -10.5000   2.0000 Du        
  13688 ****        30.5000 -10.5000   2.2500 Du        
  13689 ****        30.5000 -10.5000   3.7500 Du        
  13690 ****        30.5000 -10.5000   4.0000 Du        
  13691 ****        30.5000 -10.5000   4.2500 Du        
  13692 ****        30.5000 -10.5000   4.5000 Du        
  13693 ****        30.5000 -10.5000   4.7500 Du        
  13694 ****        30.5000 -10.5000   5.0000 Du        
  13695 ****        30.5000 -10.5000   5.2500 Du        
  13696 ****        30.5000 -10.5000   5.5000 Du        
  13697 ****        30.5000 -10.2500   1.2500 Du        
  13698 ****        30.5000 -10.2500   1.5000 Du        
  13699 ****        30.5000 -10.2500   1.7500 Du        
  13700 ****        30.5000 -10.2500   2.0000 Du        
  13701 ****        30.5000 -10.2500   2.2500 Du        
  13702 ****        30.5000 -10.2500   2.5000 Du        
  13703 ****        30.5000 -10.2500   2.7500 Du        
  13704 ****        30.5000 -10.2500   3.0000 Du        
  13705 ****        30.5000 -10.2500   3.2500 Du        
  13706 ****        30.5000 -10.2500   3.5000 Du        
  13707 ****        30.5000 -10.2500   3.7500 Du        
  13708 ****        30.5000 -10.2500   4.0000 Du        
  13709 ****        30.5000 -10.2500   4.2500 Du        
  13710 ****        30.5000 -10.2500   4.5000 Du        
  13711 ****        30.5000 -10.2500   4.7500 Du        
  13712 ****        30.5000 -10.2500   5.0000 Du        
  13713 ****        30.5000 -10.2500   5.2500 Du        
  13714 ****        30.5000 -10.2500   5.5000 Du        
  13715 ****        30.5000 -10.0000   1.2500 Du        
  13716 ****        30.5000 -10.0000   1.5000 Du        
  13717 ****        30.5000 -10.0000   1.7500 Du        
  13718 ****        30.5000 -10.0000   2.0000 Du        
  13719 ****        30.5000 -10.0000   2.2500 Du        
  13720 ****        30.5000 -10.0000   2.5000 Du        
  13721 ****        30.5000 -10.0000   2.7500 Du        
  13722 ****        30.5000 -10.0000   3.0000 Du        
  13723 ****        30.5000 -10.0000   3.2500 Du        
  13724 ****        30.5000 -10.0000   3.5000 Du        
  13725 ****        30.5000 -10.0000   3.7500 Du        
  13726 ****        30.5000 -10.0000   4.0000 Du        
  13727 ****        30.5000 -10.0000   4.2500 Du        
  13728 ****        30.5000 -10.0000   4.5000 Du        
  13729 ****        30.5000 -10.0000   4.7500 Du        
  13730 ****        30.5000 -10.0000   5.0000 Du        
  13731 ****        30.5000 -10.0000   5.2500 Du        
  13732 ****        30.5000  -9.7500   1.2500 Du        
  13733 ****        30.5000  -9.7500   1.5000 Du        
  13734 ****        30.5000  -9.7500   1.7500 Du        
  13735 ****        30.5000  -9.7500   2.0000 Du        
  13736 ****        30.5000  -9.7500   4.5000 Du        
  13737 ****        30.5000  -9.7500   4.7500 Du        
  13738 ****        30.5000  -9.7500   5.0000 Du        
  13739 ****        30.5000  -9.7500   5.2500 Du        
  13740 ****        30.7500 -10.7500   1.7500 Du        
  13741 ****        30.7500 -10.7500   2.0000 Du        
  13742 ****        30.7500 -10.7500   4.0000 Du        
  13743 ****        30.7500 -10.7500   4.2500 Du        
  13744 ****        30.7500 -10.7500   4.5000 Du        
  13745 ****        30.7500 -10.7500   4.7500 Du        
  13746 ****        30.7500 -10.7500   5.0000 Du        
  13747 ****        30.7500 -10.5000   1.5000 Du        
  13748 ****        30.7500 -10.5000   1.7500 Du        
  13749 ****        30.7500 -10.5000   2.0000 Du        
  13750 ****        30.7500 -10.5000   2.2500 Du        
  13751 ****        30.7500 -10.5000   2.5000 Du        
  13752 ****        30.7500 -10.5000   2.7500 Du        
  13753 ****        30.7500 -10.5000   3.0000 Du        
  13754 ****        30.7500 -10.5000   3.2500 Du        
  13755 ****        30.7500 -10.5000   3.5000 Du        
  13756 ****        30.7500 -10.5000   3.7500 Du        
  13757 ****        30.7500 -10.5000   4.0000 Du        
  13758 ****        30.7500 -10.5000   4.2500 Du        
  13759 ****        30.7500 -10.5000   4.5000 Du        
  13760 ****        30.7500 -10.5000   4.7500 Du        
  13761 ****        30.7500 -10.5000   5.0000 Du        
  13762 ****        30.7500 -10.5000   5.2500 Du        
  13763 ****        30.7500 -10.2500   1.2500 Du        
  13764 ****        30.7500 -10.2500   1.5000 Du        
  13765 ****        30.7500 -10.2500   1.7500 Du        
  13766 ****        30.7500 -10.2500   2.0000 Du        
  13767 ****        30.7500 -10.2500   2.2500 Du        
  13768 ****        30.7500 -10.2500   2.5000 Du        
  13769 ****        30.7500 -10.2500   2.7500 Du        
  13770 ****        30.7500 -10.2500   3.0000 Du        
  13771 ****        30.7500 -10.2500   3.2500 Du        
  13772 ****        30.7500 -10.2500   3.5000 Du        
  13773 ****        30.7500 -10.2500   3.7500 Du        
  13774 ****        30.7500 -10.2500   4.0000 Du        
  13775 ****        30.7500 -10.2500   4.2500 Du        
  13776 ****        30.7500 -10.2500   4.5000 Du        
  13777 ****        30.7500 -10.2500   4.7500 Du        
  13778 ****        30.7500 -10.2500   5.0000 Du        
  13779 ****        30.7500 -10.2500   5.2500 Du        
  13780 ****        30.7500 -10.2500   5.5000 Du        
  13781 ****        30.7500 -10.0000   1.2500 Du        
  13782 ****        30.7500 -10.0000   1.5000 Du        
  13783 ****        30.7500 -10.0000   1.7500 Du        
  13784 ****        30.7500 -10.0000   2.0000 Du        
  13785 ****        30.7500 -10.0000   2.2500 Du        
  13786 ****        30.7500 -10.0000   2.5000 Du        
  13787 ****        30.7500 -10.0000   2.7500 Du        
  13788 ****        30.7500 -10.0000   3.0000 Du        
  13789 ****        30.7500 -10.0000   3.2500 Du        
  13790 ****        30.7500 -10.0000   3.5000 Du        
  13791 ****        30.7500 -10.0000   3.7500 Du        
  13792 ****        30.7500 -10.0000   4.0000 Du        
  13793 ****        30.7500 -10.0000   4.2500 Du        
  13794 ****        30.7500 -10.0000   4.5000 Du        
  13795 ****        30.7500 -10.0000   4.7500 Du        
  13796 ****        30.7500 -10.0000   5.0000 Du        
  13797 ****        30.7500 -10.0000   5.2500 Du        
  13798 ****        30.7500 -10.0000   5.5000 Du        
  13799 ****        30.7500  -9.7500   1.2500 Du        
  13800 ****        30.7500  -9.7500   1.5000 Du        
  13801 ****        30.7500  -9.7500   1.7500 Du        
  13802 ****        30.7500  -9.7500   2.0000 Du        
  13803 ****        30.7500  -9.7500   4.5000 Du        
  13804 ****        30.7500  -9.7500   4.7500 Du        
  13805 ****        30.7500  -9.7500   5.0000 Du        
  13806 ****        30.7500  -9.7500   5.2500 Du        
  13807 ****        31.0000 -11.0000   4.5000 Du        
  13808 ****        31.0000 -10.7500   1.7500 Du        
  13809 ****        31.0000 -10.7500   2.0000 Du        
  13810 ****        31.0000 -10.7500   3.7500 Du        
  13811 ****        31.0000 -10.7500   4.0000 Du        
  13812 ****        31.0000 -10.7500   4.2500 Du        
  13813 ****        31.0000 -10.7500   4.5000 Du        
  13814 ****        31.0000 -10.7500   4.7500 Du        
  13815 ****        31.0000 -10.7500   5.0000 Du        
  13816 ****        31.0000 -10.5000   1.5000 Du        
  13817 ****        31.0000 -10.5000   1.7500 Du        
  13818 ****        31.0000 -10.5000   2.0000 Du        
  13819 ****        31.0000 -10.5000   2.2500 Du        
  13820 ****        31.0000 -10.5000   2.5000 Du        
  13821 ****        31.0000 -10.5000   2.7500 Du        
  13822 ****        31.0000 -10.5000   3.0000 Du        
  13823 ****        31.0000 -10.5000   3.2500 Du        
  13824 ****        31.0000 -10.5000   3.5000 Du        
  13825 ****        31.0000 -10.5000   3.7500 Du        
  13826 ****        31.0000 -10.5000   4.0000 Du        
  13827 ****        31.0000 -10.5000   4.2500 Du        
  13828 ****        31.0000 -10.5000   4.5000 Du        
  13829 ****        31.0000 -10.5000   4.7500 Du        
  13830 ****        31.0000 -10.5000   5.0000 Du        
  13831 ****        31.0000 -10.5000   5.2500 Du        
  13832 ****        31.0000 -10.2500   1.2500 Du        
  13833 ****        31.0000 -10.2500   1.5000 Du        
  13834 ****        31.0000 -10.2500   1.7500 Du        
  13835 ****        31.0000 -10.2500   2.0000 Du        
  13836 ****        31.0000 -10.2500   2.2500 Du        
  13837 ****        31.0000 -10.2500   2.5000 Du        
  13838 ****        31.0000 -10.2500   2.7500 Du        
  13839 ****        31.0000 -10.2500   3.0000 Du        
  13840 ****        31.0000 -10.2500   3.2500 Du        
  13841 ****        31.0000 -10.2500   3.5000 Du        
  13842 ****        31.0000 -10.2500   3.7500 Du        
  13843 ****        31.0000 -10.2500   4.0000 Du        
  13844 ****        31.0000 -10.2500   4.2500 Du        
  13845 ****        31.0000 -10.2500   4.5000 Du        
  13846 ****        31.0000 -10.2500   4.7500 Du        
  13847 ****        31.0000 -10.2500   5.0000 Du        
  13848 ****        31.0000 -10.2500   5.2500 Du        
  13849 ****        31.0000 -10.2500   5.5000 Du        
  13850 ****        31.0000 -10.0000   1.0000 Du        
  13851 ****        31.0000 -10.0000   1.2500 Du        
  13852 ****        31.0000 -10.0000   1.5000 Du        
  13853 ****        31.0000 -10.0000   1.7500 Du        
  13854 ****        31.0000 -10.0000   2.0000 Du        
  13855 ****        31.0000 -10.0000   2.2500 Du        
  13856 ****        31.0000 -10.0000   2.5000 Du        
  13857 ****        31.0000 -10.0000   2.7500 Du        
  13858 ****        31.0000 -10.0000   3.0000 Du        
  13859 ****        31.0000 -10.0000   3.2500 Du        
  13860 ****        31.0000 -10.0000   3.5000 Du        
  13861 ****        31.0000 -10.0000   3.7500 Du        
  13862 ****        31.0000 -10.0000   4.0000 Du        
  13863 ****        31.0000 -10.0000   4.2500 Du        
  13864 ****        31.0000 -10.0000   4.5000 Du        
  13865 ****        31.0000 -10.0000   4.7500 Du        
  13866 ****        31.0000 -10.0000   5.0000 Du        
  13867 ****        31.0000 -10.0000   5.2500 Du        
  13868 ****        31.0000 -10.0000   5.5000 Du        
  13869 ****        31.0000  -9.7500   1.0000 Du        
  13870 ****        31.0000  -9.7500   1.2500 Du        
  13871 ****        31.0000  -9.7500   1.5000 Du        
  13872 ****        31.0000  -9.7500   1.7500 Du        
  13873 ****        31.0000  -9.7500   2.0000 Du        
  13874 ****        31.0000  -9.7500   4.5000 Du        
  13875 ****        31.0000  -9.7500   4.7500 Du        
  13876 ****        31.0000  -9.7500   5.0000 Du        
  13877 ****        31.0000  -9.7500   5.2500 Du        
  13878 ****        31.0000  -9.5000   1.5000 Du        
  13879 ****        31.2500 -11.0000   4.5000 Du        
  13880 ****        31.2500 -10.7500   2.0000 Du        
  13881 ****        31.2500 -10.7500   3.7500 Du        
  13882 ****        31.2500 -10.7500   4.0000 Du        
  13883 ****        31.2500 -10.7500   4.2500 Du        
  13884 ****        31.2500 -10.7500   4.5000 Du        
  13885 ****        31.2500 -10.7500   4.7500 Du        
  13886 ****        31.2500 -10.7500   5.0000 Du        
  13887 ****        31.2500 -10.5000   1.5000 Du        
  13888 ****        31.2500 -10.5000   1.7500 Du        
  13889 ****        31.2500 -10.5000   2.0000 Du        
  13890 ****        31.2500 -10.5000   2.2500 Du        
  13891 ****        31.2500 -10.5000   2.5000 Du        
  13892 ****        31.2500 -10.5000   2.7500 Du        
  13893 ****        31.2500 -10.5000   3.0000 Du        
  13894 ****        31.2500 -10.5000   3.2500 Du        
  13895 ****        31.2500 -10.5000   3.5000 Du        
  13896 ****        31.2500 -10.5000   3.7500 Du        
  13897 ****        31.2500 -10.5000   4.0000 Du        
  13898 ****        31.2500 -10.5000   4.2500 Du        
  13899 ****        31.2500 -10.5000   4.5000 Du        
  13900 ****        31.2500 -10.5000   4.7500 Du        
  13901 ****        31.2500 -10.5000   5.0000 Du        
  13902 ****        31.2500 -10.5000   5.2500 Du        
  13903 ****        31.2500 -10.2500   1.2500 Du        
  13904 ****        31.2500 -10.2500   1.5000 Du        
  13905 ****        31.2500 -10.2500   1.7500 Du        
  13906 ****        31.2500 -10.2500   2.0000 Du        
  13907 ****        31.2500 -10.2500   2.2500 Du        
  13908 ****        31.2500 -10.2500   2.5000 Du        
  13909 ****        31.2500 -10.2500   2.7500 Du        
  13910 ****        31.2500 -10.2500   3.0000 Du        
  13911 ****        31.2500 -10.2500   3.2500 Du        
  13912 ****        31.2500 -10.2500   3.5000 Du        
  13913 ****        31.2500 -10.2500   3.7500 Du        
  13914 ****        31.2500 -10.2500   4.0000 Du        
  13915 ****        31.2500 -10.2500   4.2500 Du        
  13916 ****        31.2500 -10.2500   4.5000 Du        
  13917 ****        31.2500 -10.2500   4.7500 Du        
  13918 ****        31.2500 -10.2500   5.0000 Du        
  13919 ****        31.2500 -10.2500   5.2500 Du        
  13920 ****        31.2500 -10.2500   5.5000 Du        
  13921 ****        31.2500 -10.0000   1.0000 Du        
  13922 ****        31.2500 -10.0000   1.2500 Du        
  13923 ****        31.2500 -10.0000   1.5000 Du        
  13924 ****        31.2500 -10.0000   1.7500 Du        
  13925 ****        31.2500 -10.0000   2.0000 Du        
  13926 ****        31.2500 -10.0000   2.2500 Du        
  13927 ****        31.2500 -10.0000   2.5000 Du        
  13928 ****        31.2500 -10.0000   2.7500 Du        
  13929 ****        31.2500 -10.0000   3.0000 Du        
  13930 ****        31.2500 -10.0000   3.2500 Du        
  13931 ****        31.2500 -10.0000   3.5000 Du        
  13932 ****        31.2500 -10.0000   3.7500 Du        
  13933 ****        31.2500 -10.0000   4.0000 Du        
  13934 ****        31.2500 -10.0000   4.2500 Du        
  13935 ****        31.2500 -10.0000   4.5000 Du        
  13936 ****        31.2500 -10.0000   4.7500 Du        
  13937 ****        31.2500 -10.0000   5.0000 Du        
  13938 ****        31.2500 -10.0000   5.2500 Du        
  13939 ****        31.2500 -10.0000   5.5000 Du        
  13940 ****        31.2500  -9.7500   1.0000 Du        
  13941 ****        31.2500  -9.7500   1.2500 Du        
  13942 ****        31.2500  -9.7500   1.5000 Du        
  13943 ****        31.2500  -9.7500   1.7500 Du        
  13944 ****        31.2500  -9.7500   2.0000 Du        
  13945 ****        31.2500  -9.7500   4.5000 Du        
  13946 ****        31.2500  -9.7500   4.7500 Du        
  13947 ****        31.2500  -9.7500   5.0000 Du        
  13948 ****        31.2500  -9.7500   5.2500 Du        
  13949 ****        31.2500  -9.7500   5.5000 Du        
  13950 ****        31.2500  -9.5000   1.2500 Du        
  13951 ****        31.2500  -9.5000   1.5000 Du        
  13952 ****        31.5000 -10.7500   3.7500 Du        
  13953 ****        31.5000 -10.7500   4.0000 Du        
  13954 ****        31.5000 -10.7500   4.2500 Du        
  13955 ****        31.5000 -10.7500   4.5000 Du        
  13956 ****        31.5000 -10.7500   4.7500 Du        
  13957 ****        31.5000 -10.7500   5.0000 Du        
  13958 ****        31.5000 -10.5000   1.5000 Du        
  13959 ****        31.5000 -10.5000   1.7500 Du        
  13960 ****        31.5000 -10.5000   2.0000 Du        
  13961 ****        31.5000 -10.5000   2.2500 Du        
  13962 ****        31.5000 -10.5000   2.5000 Du        
  13963 ****        31.5000 -10.5000   2.7500 Du        
  13964 ****        31.5000 -10.5000   3.0000 Du        
  13965 ****        31.5000 -10.5000   3.2500 Du        
  13966 ****        31.5000 -10.5000   3.5000 Du        
  13967 ****        31.5000 -10.5000   3.7500 Du        
  13968 ****        31.5000 -10.5000   4.0000 Du        
  13969 ****        31.5000 -10.5000   4.2500 Du        
  13970 ****        31.5000 -10.5000   4.5000 Du        
  13971 ****        31.5000 -10.5000   4.7500 Du        
  13972 ****        31.5000 -10.5000   5.0000 Du        
  13973 ****        31.5000 -10.5000   5.2500 Du        
  13974 ****        31.5000 -10.2500   1.2500 Du        
  13975 ****        31.5000 -10.2500   1.5000 Du        
  13976 ****        31.5000 -10.2500   1.7500 Du        
  13977 ****        31.5000 -10.2500   2.0000 Du        
  13978 ****        31.5000 -10.2500   2.2500 Du        
  13979 ****        31.5000 -10.2500   2.5000 Du        
  13980 ****        31.5000 -10.2500   2.7500 Du        
  13981 ****        31.5000 -10.2500   3.0000 Du        
  13982 ****        31.5000 -10.2500   3.2500 Du        
  13983 ****        31.5000 -10.2500   3.5000 Du        
  13984 ****        31.5000 -10.2500   3.7500 Du        
  13985 ****        31.5000 -10.2500   4.0000 Du        
  13986 ****        31.5000 -10.2500   4.2500 Du        
  13987 ****        31.5000 -10.2500   4.5000 Du        
  13988 ****        31.5000 -10.2500   4.7500 Du        
  13989 ****        31.5000 -10.2500   5.0000 Du        
  13990 ****        31.5000 -10.2500   5.2500 Du        
  13991 ****        31.5000 -10.2500   5.5000 Du        
  13992 ****        31.5000 -10.0000   1.0000 Du        
  13993 ****        31.5000 -10.0000   1.2500 Du        
  13994 ****        31.5000 -10.0000   1.5000 Du        
  13995 ****        31.5000 -10.0000   1.7500 Du        
  13996 ****        31.5000 -10.0000   2.0000 Du        
  13997 ****        31.5000 -10.0000   2.2500 Du        
  13998 ****        31.5000 -10.0000   2.5000 Du        
  13999 ****        31.5000 -10.0000   2.7500 Du        
  14000 ****        31.5000 -10.0000   3.0000 Du        
  14001 ****        31.5000 -10.0000   3.2500 Du        
  14002 ****        31.5000 -10.0000   3.5000 Du        
  14003 ****        31.5000 -10.0000   3.7500 Du        
  14004 ****        31.5000 -10.0000   4.0000 Du        
  14005 ****        31.5000 -10.0000   4.2500 Du        
  14006 ****        31.5000 -10.0000   4.5000 Du        
  14007 ****        31.5000 -10.0000   4.7500 Du        
  14008 ****        31.5000 -10.0000   5.0000 Du        
  14009 ****        31.5000 -10.0000   5.2500 Du        
  14010 ****        31.5000 -10.0000   5.5000 Du        
  14011 ****        31.5000  -9.7500   1.0000 Du        
  14012 ****        31.5000  -9.7500   1.2500 Du        
  14013 ****        31.5000  -9.7500   1.5000 Du        
  14014 ****        31.5000  -9.7500   1.7500 Du        
  14015 ****        31.5000  -9.7500   2.0000 Du        
  14016 ****        31.5000  -9.7500   2.2500 Du        
  14017 ****        31.5000  -9.7500   4.7500 Du        
  14018 ****        31.5000  -9.7500   5.0000 Du        
  14019 ****        31.5000  -9.7500   5.2500 Du        
  14020 ****        31.5000  -9.7500   5.5000 Du        
  14021 ****        31.5000  -9.5000   1.0000 Du        
  14022 ****        31.5000  -9.5000   1.2500 Du        
  14023 ****        31.5000  -9.5000   1.5000 Du        
  14024 ****        31.7500 -10.7500   4.0000 Du        
  14025 ****        31.7500 -10.7500   4.2500 Du        
  14026 ****        31.7500 -10.7500   4.5000 Du        
  14027 ****        31.7500 -10.7500   4.7500 Du        
  14028 ****        31.7500 -10.7500   5.0000 Du        
  14029 ****        31.7500 -10.5000   1.5000 Du        
  14030 ****        31.7500 -10.5000   1.7500 Du        
  14031 ****        31.7500 -10.5000   2.0000 Du        
  14032 ****        31.7500 -10.5000   2.2500 Du        
  14033 ****        31.7500 -10.5000   2.5000 Du        
  14034 ****        31.7500 -10.5000   2.7500 Du        
  14035 ****        31.7500 -10.5000   3.0000 Du        
  14036 ****        31.7500 -10.5000   3.2500 Du        
  14037 ****        31.7500 -10.5000   3.5000 Du        
  14038 ****        31.7500 -10.5000   3.7500 Du        
  14039 ****        31.7500 -10.5000   4.0000 Du        
  14040 ****        31.7500 -10.5000   4.2500 Du        
  14041 ****        31.7500 -10.5000   4.5000 Du        
  14042 ****        31.7500 -10.5000   4.7500 Du        
  14043 ****        31.7500 -10.5000   5.0000 Du        
  14044 ****        31.7500 -10.5000   5.2500 Du        
  14045 ****        31.7500 -10.2500   1.2500 Du        
  14046 ****        31.7500 -10.2500   1.5000 Du        
  14047 ****        31.7500 -10.2500   1.7500 Du        
  14048 ****        31.7500 -10.2500   2.0000 Du        
  14049 ****        31.7500 -10.2500   2.2500 Du        
  14050 ****        31.7500 -10.2500   2.5000 Du        
  14051 ****        31.7500 -10.2500   2.7500 Du        
  14052 ****        31.7500 -10.2500   3.0000 Du        
  14053 ****        31.7500 -10.2500   3.2500 Du        
  14054 ****        31.7500 -10.2500   3.5000 Du        
  14055 ****        31.7500 -10.2500   3.7500 Du        
  14056 ****        31.7500 -10.2500   4.0000 Du        
  14057 ****        31.7500 -10.2500   4.2500 Du        
  14058 ****        31.7500 -10.2500   4.5000 Du        
  14059 ****        31.7500 -10.2500   4.7500 Du        
  14060 ****        31.7500 -10.2500   5.0000 Du        
  14061 ****        31.7500 -10.2500   5.2500 Du        
  14062 ****        31.7500 -10.2500   5.5000 Du        
  14063 ****        31.7500 -10.0000   1.0000 Du        
  14064 ****        31.7500 -10.0000   1.2500 Du        
  14065 ****        31.7500 -10.0000   1.5000 Du        
  14066 ****        31.7500 -10.0000   1.7500 Du        
  14067 ****        31.7500 -10.0000   2.0000 Du        
  14068 ****        31.7500 -10.0000   2.2500 Du        
  14069 ****        31.7500 -10.0000   2.5000 Du        
  14070 ****        31.7500 -10.0000   2.7500 Du        
  14071 ****        31.7500 -10.0000   3.0000 Du        
  14072 ****        31.7500 -10.0000   3.2500 Du        
  14073 ****        31.7500 -10.0000   3.5000 Du        
  14074 ****        31.7500 -10.0000   3.7500 Du        
  14075 ****        31.7500 -10.0000   4.0000 Du        
  14076 ****        31.7500 -10.0000   4.2500 Du        
  14077 ****        31.7500 -10.0000   4.5000 Du        
  14078 ****        31.7500 -10.0000   4.7500 Du        
  14079 ****        31.7500 -10.0000   5.0000 Du        
  14080 ****        31.7500 -10.0000   5.2500 Du        
  14081 ****        31.7500 -10.0000   5.5000 Du        
  14082 ****        31.7500 -10.0000   5.7500 Du        
  14083 ****        31.7500  -9.7500   1.0000 Du        
  14084 ****        31.7500  -9.7500   1.2500 Du        
  14085 ****        31.7500  -9.7500   1.5000 Du        
  14086 ****        31.7500  -9.7500   1.7500 Du        
  14087 ****        31.7500  -9.7500   2.0000 Du        
  14088 ****        31.7500  -9.7500   2.2500 Du        
  14089 ****        31.7500  -9.7500   4.5000 Du        
  14090 ****        31.7500  -9.7500   4.7500 Du        
  14091 ****        31.7500  -9.7500   5.0000 Du        
  14092 ****        31.7500  -9.7500   5.2500 Du        
  14093 ****        31.7500  -9.7500   5.5000 Du        
  14094 ****        31.7500  -9.5000   1.0000 Du        
  14095 ****        31.7500  -9.5000   1.2500 Du        
  14096 ****        31.7500  -9.5000   1.5000 Du        
  14097 ****        31.7500  -9.5000   1.7500 Du        
