#       Name:                CT1002167954
#       Creating user name   hitesit
#       Creation time:       Sun Apr 16 22:50:29 2023


#       File generated by GOLD software.
#

@<TRIPOS>MOLECULE
CT1002167954|ligand_prepared|mol2|1|dock7
    29    30     1
SMALL
NO_CHARGES


@<TRIPOS>ATOM
      1 C1          24.1787 -10.2012   1.2951 C.3            1 RES1               0.0000
      2 C2          23.6138 -11.4379   0.5669 C.ar           1 RES1               0.0000
      3 C3          24.1316 -10.5232   2.7859 C.2            1 RES1               0.0000
      4 C4          25.5862  -9.9902   0.7484 C.2            1 RES1               0.0000
      5 C5          23.3705  -8.9064   1.0465 C.3            1 RES1               0.0000
      6 C6          23.6603 -12.6943   1.1637 C.ar           1 RES1               0.0000
      7 C7          23.0417 -11.3379  -0.6985 C.ar           1 RES1               0.0000
      8 N8          25.3117 -10.8036   3.4093 N.am           1 RES1               0.0000
      9 O9          23.0708 -10.5691   3.3965 O.2            1 RES1               0.0000
     10 N10         26.6406 -10.1571   1.6076 N.am           1 RES1               0.0000
     11 O11         25.7926  -9.6971  -0.4229 O.2            1 RES1               0.0000
     12 C12         23.7900  -7.7425   1.9305 C.3            1 RES1               0.0000
     13 C13         23.1508 -13.8098   0.5200 C.ar           1 RES1               0.0000
     14 C14         22.5329 -12.4548  -1.3405 C.ar           1 RES1               0.0000
     15 C15         26.5686 -10.5843   2.9055 C.2            1 RES1               0.0000
     16 C16         22.5864 -13.6908  -0.7321 C.ar           1 RES1               0.0000
     17 O17         27.5659 -10.7630   3.5988 O.2            1 RES1               0.0000
     18 H18         23.4886  -8.6126  -0.0038 H              1 RES1               0.0000
     19 H19         22.3074  -9.1152   1.2187 H              1 RES1               0.0000
     20 H20         24.1029 -12.8078   2.1477 H              1 RES1               0.0000
     21 H21         22.9898 -10.3758  -1.1968 H              1 RES1               0.0000
     22 H22         25.2544 -11.2145   4.3357 H              1 RES1               0.0000
     23 H23         27.5646  -9.9430   1.2462 H              1 RES1               0.0000
     24 H24         23.1917  -6.8596   1.7154 H              1 RES1               0.0000
     25 H25         23.6616  -7.9909   2.9820 H              1 RES1               0.0000
     26 H26         24.8359  -7.4913   1.7668 H              1 RES1               0.0000
     27 H27         23.1965 -14.7805   1.0026 H              1 RES1               0.0000
     28 H28         22.0902 -12.3566  -2.3262 H              1 RES1               0.0000
     29 H29         22.1869 -14.5647  -1.2360 H              1 RES1               0.0000
@<TRIPOS>BOND
    1    1    2 1     
    2    1    3 1     
    3    1    4 1     
    4    1    5 1     
    5    2    6 ar    
    6    2    7 ar    
    7    3    8 1     
    8    3    9 2     
    9    4   10 1     
   10    4   11 2     
   11    5   12 1     
   12    5   18 1     
   13    5   19 1     
   14    6   13 ar    
   15    6   20 1     
   16    7   14 ar    
   17    7   21 1     
   18    8   15 1     
   19    8   22 1     
   20   10   15 1     
   21   10   23 1     
   22   12   24 1     
   23   12   25 1     
   24   12   26 1     
   25   13   16 ar    
   26   13   27 1     
   27   14   16 ar    
   28   14   28 1     
   29   15   17 2     
   30   16   29 1     
@<TRIPOS>SUBSTRUCTURE
      1 RES1           1
@<TRIPOS>SET
DONOR_HYDROGENS      STATIC     ATOMS    <user>   **** ""
2 22 23
ATOM$RED        STATIC     ATOMS    COLORGROUP SYSTEM
2 22 23
@<TRIPOS>COMMENT
> <Gold.Version>
2022.3.0

> <Gold.Id.Protein>
unknown|3owp_clean|pdb

> <Gold.Protein.RotatedTorsions>
[ 3671 3662 3661 3659 ] final   -6.71 input   60.00 | X-H torsion
[ 3591 3582 3581 3579 ] final   -8.48 input   60.01 | X-H torsion
[ 3859 3850 3849 3847 ] final   70.34 input   60.02 | X-H torsion
[ 3132 3125 3123 3120 ] final  117.95 input   60.00 | X-H torsion
[ 5167 5158 5157 5155 ] final  107.70 input   60.02 | X-H torsion
[ 2604 2593 2592 2591 ] final -151.16 input   59.97 | X-H torsion
[  605  600  598  595 ] final    6.48 input   60.04 | X-H torsion
[ 1932 1928 1927 1924 ] final  -53.01 input   59.99 | X-H torsion
[ 3182 3173 3172 3170 ] final  -20.82 input   60.01 | X-H torsion
[  625  620  619  616 ] final  -33.86 input   60.02 | X-H torsion

> <Gold.Protein.ActiveResidues>
 LEU49   GLY50   THR51   GLY52   SER53   PHE54   GLY55   VAL79   LEU82   LYS83  
 GLN84   HIS87   THR88   GLY126  GLU127  MET128  PHE129  SER130  HIS131  LEU132 
 ARG133  ARG134  ILE135  GLY136  ARG137  ARG165  ASP166  LEU167  LYS168  PRO169 
 GLU170  ASN171  LEU172  LEU173  ASP184  GLY186  PHE187  TPO197  LEU198  CYS199 
 GLY200  THR201  PRO202  GLU203  TYR204  LEU205  ILE209  ILE210  VAL226  LEU227 
 TYR229  GLU230  ALA233  GLY234  TYR235  PRO236  PRO237  PHE238  PHE239  ALA240 
 ASP241  GLN242  PRO243  ILE244  GLN245  ILE246  TYR247  LYS249  ARG256  PHE257 
 PRO258  SER259  ASN326  PHE327  ASP328  ASP329  TYR330 

> <Gold.Protein.RotatedAtoms>
   20.1853  -12.8624    5.9129 H   0  0  0  0  0  0  0  0  0  0  0  0  # atno 605  bound_to 600 
   17.3129  -11.9092   -1.2942 H   0  0  0  0  0  0  0  0  0  0  0  0  # atno 625  bound_to 620 
   25.3390   -5.0180   12.4232 H   0  0  0  0  0  0  0  0  0  0  0  0  # atno 1932 bound_to 1928
   19.5454   -5.0936    1.0257 H   0  0  0  0  0  0  0  0  0  0  0  0  # atno 2604 bound_to 2593
   18.7828   -3.6914    1.4711 H   0  0  0  0  0  0  0  0  0  0  0  0  # atno 2605 bound_to 2593
   19.1322   -3.9745   -0.1241 H   0  0  0  0  0  0  0  0  0  0  0  0  # atno 2606 bound_to 2593
   18.8601   -1.9337   -0.8182 H   0  0  0  0  0  0  0  0  0  0  0  0  # atno 3132 bound_to 3125
   20.6602    4.3869    4.4129 H   0  0  0  0  0  0  0  0  0  0  0  0  # atno 3182 bound_to 3173
   15.9535   13.1778    8.1919 H   0  0  0  0  0  0  0  0  0  0  0  0  # atno 3591 bound_to 3582
   16.0533   14.0628   11.2093 H   0  0  0  0  0  0  0  0  0  0  0  0  # atno 3671 bound_to 3662
    9.7257   -0.6551   -1.8232 H   0  0  0  0  0  0  0  0  0  0  0  0  # atno 3859 bound_to 3850
   22.9827  -10.4967    8.3991 H   0  0  0  0  0  0  0  0  0  0  0  0  # atno 5167 bound_to 5158
   17.1966   13.9081   12.3573 LP  0  0  0  0  0  0  0  0  0  0  0  0  # atno 5485 bound_to 3662
   15.6193   13.7358   12.7435 LP  0  0  0  0  0  0  0  0  0  0  0  0  # atno 5486 bound_to 3662
   15.5978   14.2301    7.0027 LP  0  0  0  0  0  0  0  0  0  0  0  0  # atno 5493 bound_to 3582
   16.6440   14.6513    8.1836 LP  0  0  0  0  0  0  0  0  0  0  0  0  # atno 5494 bound_to 3582
   10.2306   -0.5003   -3.3626 LP  0  0  0  0  0  0  0  0  0  0  0  0  # atno 5549 bound_to 3850
    8.7634   -1.1417   -3.0421 LP  0  0  0  0  0  0  0  0  0  0  0  0  # atno 5550 bound_to 3850
   17.5618   -2.7196   -1.4051 LP  0  0  0  0  0  0  0  0  0  0  0  0  # atno 5553 bound_to 3125
   17.9390   -2.8298    0.1799 LP  0  0  0  0  0  0  0  0  0  0  0  0  # atno 5554 bound_to 3125
   23.7780  -10.1253    9.7690 LP  0  0  0  0  0  0  0  0  0  0  0  0  # atno 5563 bound_to 5158
   22.1453  -10.1236    9.7432 LP  0  0  0  0  0  0  0  0  0  0  0  0  # atno 5564 bound_to 5158
   20.1152  -13.8815    7.1796 LP  0  0  0  0  0  0  0  0  0  0  0  0  # atno 5571 bound_to 600 
   18.9583  -13.9251    6.0279 LP  0  0  0  0  0  0  0  0  0  0  0  0  # atno 5572 bound_to 600 
   26.8011   -5.7185   12.2871 LP  0  0  0  0  0  0  0  0  0  0  0  0  # atno 5573 bound_to 1928
   26.2394   -4.7556   11.0938 LP  0  0  0  0  0  0  0  0  0  0  0  0  # atno 5574 bound_to 1928
   21.6315    5.4233    3.6184 LP  0  0  0  0  0  0  0  0  0  0  0  0  # atno 5603 bound_to 3173
   22.0575    3.8542    3.7705 LP  0  0  0  0  0  0  0  0  0  0  0  0  # atno 5604 bound_to 3173
   16.0438  -11.3708   -2.1587 LP  0  0  0  0  0  0  0  0  0  0  0  0  # atno 5611 bound_to 620 
   16.9223  -12.6382   -2.6956 LP  0  0  0  0  0  0  0  0  0  0  0  0  # atno 5612 bound_to 620 

> <Gold.Score>
     Fitness  S(hb_ext) S(vdw_ext)  S(hb_int)    S(int)      intcor
     33.05       0.00      24.71       0.00      -0.93      -0.76

> <Gold.Goldscore.Fitness>
33.0500

> <Gold.Goldscore.Internal.Vdw>
-1.1865

> <Gold.Goldscore.Internal.Torsion>
-0.5033

> <Gold.Goldscore.External.Vdw>
24.7137

> <Gold.Goldscore.Internal.HBond>
0.0000

> <Gold.Goldscore.External.HBond>
0.0000

> <Gold.Goldscore.Internal.Correction>
-0.7585

> <Gold.Goldscore.Internal.Vdw.Weighted>
-1.1865

> <Gold.Goldscore.Internal.Torsion.Weighted>
-0.5033

> <Gold.Goldscore.External.Vdw.Weighted>
33.9813

> <Gold.Goldscore.Internal.HBond.Weighted>
0.0000

> <Gold.Goldscore.External.HBond.Weighted>
0.0000

> <Gold.Goldscore.Internal.Correction.Weighted>
-0.7585

> <Gold.Rescore>
     Score     S(PLP)   S(hbond)     S(cho)   S(metal)  DE(clash)   DE(tors)     intcor
     31.85     -34.28       0.00       0.00       0.00       1.75       0.34       ----

> <Gold.PLP.Fitness>
31.8527

> <Gold.PLP.PLP>
-34.2759

> <Gold.PLP.part.hbond>
-0.9578

> <Gold.PLP.part.metal>
0.0000

> <Gold.PLP.part.buried>
-5.7719

> <Gold.PLP.part.nonpolar>
-30.5954

> <Gold.PLP.part.repulsive>
2.0415

> <Gold.PLP.ligand.clash>
1.7519

> <Gold.PLP.ligand.torsion>
0.3357

> <Gold.PLP.Chemscore.Hbond>
0.0000

> <Gold.PLP.Chemscore.CHOScore>
0.0000

> <Gold.PLP.Chemscore.Metal>
0.0000

> <Gold.PLP.Chemscore.Internal.Correction>
   9.000000E+99

