#       Name:                CT1002167954
#       Creating user name   hitesit
#       Creation time:       Sun Apr 16 22:50:23 2023


#       File generated by GOLD software.
#

@<TRIPOS>MOLECULE
CT1002167954|ligand_prepared|mol2|1|dock2
    29    30     1
SMALL
NO_CHARGES


@<TRIPOS>ATOM
      1 C1          19.6164  -9.8244  -2.3425 C.3            1 RES1               0.0000
      2 C2          20.6714 -10.9092  -2.0442 C.ar           1 RES1               0.0000
      3 C3          18.8064  -9.6506  -1.0611 C.2            1 RES1               0.0000
      4 C4          20.3910  -8.5801  -2.7624 C.2            1 RES1               0.0000
      5 C5          18.6476 -10.1938  -3.4898 C.3            1 RES1               0.0000
      6 C6          20.3481 -12.2590  -2.1458 C.ar           1 RES1               0.0000
      7 C7          21.9704 -10.5762  -1.6695 C.ar           1 RES1               0.0000
      8 N8          19.0234  -8.5237  -0.3243 N.am           1 RES1               0.0000
      9 O9          18.0179 -10.5081  -0.6824 O.2            1 RES1               0.0000
     10 N10         20.3297  -7.4801  -1.9474 N.am           1 RES1               0.0000
     11 O11         21.0674  -8.5477  -3.7830 O.2            1 RES1               0.0000
     12 C12         17.7964  -9.0298  -3.9723 C.3            1 RES1               0.0000
     13 C13         21.2900 -13.2404  -1.8852 C.ar           1 RES1               0.0000
     14 C14         22.9108 -11.5593  -1.4091 C.ar           1 RES1               0.0000
     15 C15         19.7058  -7.4057  -0.7319 C.2            1 RES1               0.0000
     16 C16         22.5720 -12.8913  -1.5172 C.ar           1 RES1               0.0000
     17 O17         19.7409  -6.3981  -0.0315 O.2            1 RES1               0.0000
     18 H18         19.2316 -10.5784  -4.3351 H              1 RES1               0.0000
     19 H19         17.9845 -10.9977  -3.1470 H              1 RES1               0.0000
     20 H20         19.3437 -12.5528  -2.4317 H              1 RES1               0.0000
     21 H21         22.2591  -9.5348  -1.5771 H              1 RES1               0.0000
     22 H22         18.6432  -8.5111   0.6167 H              1 RES1               0.0000
     23 H23         20.7918  -6.6388  -2.2775 H              1 RES1               0.0000
     24 H24         17.1350  -9.3432  -4.7772 H              1 RES1               0.0000
     25 H25         17.1835  -8.6385  -3.1629 H              1 RES1               0.0000
     26 H26         18.4232  -8.2217  -4.3439 H              1 RES1               0.0000
     27 H27         21.0180 -14.2873  -1.9703 H              1 RES1               0.0000
     28 H28         23.9183 -11.2800  -1.1192 H              1 RES1               0.0000
     29 H29         23.3098 -13.6603  -1.3135 H              1 RES1               0.0000
@<TRIPOS>BOND
    1    1    2 1     
    2    1    3 1     
    3    1    4 1     
    4    1    5 1     
    5    2    6 ar    
    6    2    7 ar    
    7    3    8 1     
    8    3    9 2     
    9    4   10 1     
   10    4   11 2     
   11    5   12 1     
   12    5   18 1     
   13    5   19 1     
   14    6   13 ar    
   15    6   20 1     
   16    7   14 ar    
   17    7   21 1     
   18    8   15 1     
   19    8   22 1     
   20   10   15 1     
   21   10   23 1     
   22   12   24 1     
   23   12   25 1     
   24   12   26 1     
   25   13   16 ar    
   26   13   27 1     
   27   14   16 ar    
   28   14   28 1     
   29   15   17 2     
   30   16   29 1     
@<TRIPOS>SUBSTRUCTURE
      1 RES1           1
@<TRIPOS>SET
DONOR_HYDROGENS      STATIC     ATOMS    <user>   **** ""
2 22 23
ATOM$RED        STATIC     ATOMS    COLORGROUP SYSTEM
2 22 23
@<TRIPOS>COMMENT
> <Gold.Version>
2022.3.0

> <Gold.Id.Protein>
unknown|3owp_clean|pdb

> <Gold.Protein.RotatedTorsions>
[ 3671 3662 3661 3659 ] final  161.29 input   60.00 | X-H torsion
[ 3591 3582 3581 3579 ] final   96.37 input   60.01 | X-H torsion
[ 3859 3850 3849 3847 ] final -125.51 input   60.02 | X-H torsion
[ 3132 3125 3123 3120 ] final  -47.53 input   60.00 | X-H torsion
[ 5167 5158 5157 5155 ] final  -71.03 input   60.02 | X-H torsion
[ 2604 2593 2592 2591 ] final  175.99 input   59.97 | X-H torsion
[  605  600  598  595 ] final   23.42 input   60.04 | X-H torsion
[ 1932 1928 1927 1924 ] final  173.92 input   59.99 | X-H torsion
[ 3182 3173 3172 3170 ] final  144.37 input   60.01 | X-H torsion
[  625  620  619  616 ] final  -62.36 input   60.02 | X-H torsion

> <Gold.Protein.ActiveResidues>
 LEU49   GLY50   THR51   GLY52   SER53   PHE54   GLY55   VAL79   LEU82   LYS83  
 GLN84   HIS87   THR88   GLY126  GLU127  MET128  PHE129  SER130  HIS131  LEU132 
 ARG133  ARG134  ILE135  GLY136  ARG137  ARG165  ASP166  LEU167  LYS168  PRO169 
 GLU170  ASN171  LEU172  LEU173  ASP184  GLY186  PHE187  TPO197  LEU198  CYS199 
 GLY200  THR201  PRO202  GLU203  TYR204  LEU205  ILE209  ILE210  VAL226  LEU227 
 TYR229  GLU230  ALA233  GLY234  TYR235  PRO236  PRO237  PHE238  PHE239  ALA240 
 ASP241  GLN242  PRO243  ILE244  GLN245  ILE246  TYR247  LYS249  ARG256  PHE257 
 PRO258  SER259  ASN326  PHE327  ASP328  ASP329  TYR330 

> <Gold.Protein.RotatedAtoms>
   19.9734  -12.8998    5.7404 H   0  0  0  0  0  0  0  0  0  0  0  0  # atno 605  bound_to 600 
   17.0055  -11.5703   -1.2386 H   0  0  0  0  0  0  0  0  0  0  0  0  # atno 625  bound_to 620 
   26.8971   -5.6642   12.1038 H   0  0  0  0  0  0  0  0  0  0  0  0  # atno 1932 bound_to 1928
   19.5920   -5.0477    0.4886 H   0  0  0  0  0  0  0  0  0  0  0  0  # atno 2604 bound_to 2593
   18.9715   -4.1319    1.7224 H   0  0  0  0  0  0  0  0  0  0  0  0  # atno 2605 bound_to 2593
   18.8967   -3.5798    0.1616 H   0  0  0  0  0  0  0  0  0  0  0  0  # atno 2606 bound_to 2593
   17.3513   -3.0158   -0.7763 H   0  0  0  0  0  0  0  0  0  0  0  0  # atno 3132 bound_to 3125
   22.2705    4.4857    3.4922 H   0  0  0  0  0  0  0  0  0  0  0  0  # atno 3182 bound_to 3173
   16.6750   14.4657    8.3448 H   0  0  0  0  0  0  0  0  0  0  0  0  # atno 3591 bound_to 3582
   16.3321   13.7215   13.0194 H   0  0  0  0  0  0  0  0  0  0  0  0  # atno 3671 bound_to 3662
    9.1966   -0.9698   -3.5727 H   0  0  0  0  0  0  0  0  0  0  0  0  # atno 3859 bound_to 3850
   22.9755  -10.0044   10.2048 H   0  0  0  0  0  0  0  0  0  0  0  0  # atno 5167 bound_to 5158
   15.4534   13.9388   11.6668 LP  0  0  0  0  0  0  0  0  0  0  0  0  # atno 5485 bound_to 3662
   17.0818   14.0486   11.6123 LP  0  0  0  0  0  0  0  0  0  0  0  0  # atno 5486 bound_to 3662
   15.7968   13.1388    8.0041 LP  0  0  0  0  0  0  0  0  0  0  0  0  # atno 5493 bound_to 3582
   15.7187   14.4458    7.0283 LP  0  0  0  0  0  0  0  0  0  0  0  0  # atno 5494 bound_to 3582
    9.0941   -0.9450   -1.9487 LP  0  0  0  0  0  0  0  0  0  0  0  0  # atno 5549 bound_to 3850
   10.4328   -0.3800   -2.6939 LP  0  0  0  0  0  0  0  0  0  0  0  0  # atno 5550 bound_to 3850
   18.5310   -2.4052    0.1634 LP  0  0  0  0  0  0  0  0  0  0  0  0  # atno 5553 bound_to 3125
   18.4893   -2.0544   -1.4309 LP  0  0  0  0  0  0  0  0  0  0  0  0  # atno 5554 bound_to 3125
   22.1488  -10.3668    8.8511 LP  0  0  0  0  0  0  0  0  0  0  0  0  # atno 5563 bound_to 5158
   23.7817  -10.3781    8.8418 LP  0  0  0  0  0  0  0  0  0  0  0  0  # atno 5564 bound_to 5158
   20.3062  -13.6874    7.1249 LP  0  0  0  0  0  0  0  0  0  0  0  0  # atno 5571 bound_to 600 
   18.9807  -14.0815    6.2563 LP  0  0  0  0  0  0  0  0  0  0  0  0  # atno 5572 bound_to 600 
   26.0446   -4.6748   11.1337 LP  0  0  0  0  0  0  0  0  0  0  0  0  # atno 5573 bound_to 1928
   25.4260   -5.1481   12.5690 LP  0  0  0  0  0  0  0  0  0  0  0  0  # atno 5574 bound_to 1928
   21.0647    3.7933    4.3382 LP  0  0  0  0  0  0  0  0  0  0  0  0  # atno 5603 bound_to 3173
   21.0035    5.3848    3.9774 LP  0  0  0  0  0  0  0  0  0  0  0  0  # atno 5604 bound_to 3173
   16.0216  -11.6450   -2.5325 LP  0  0  0  0  0  0  0  0  0  0  0  0  # atno 5611 bound_to 620 
   17.2540  -12.7052   -2.3779 LP  0  0  0  0  0  0  0  0  0  0  0  0  # atno 5612 bound_to 620 

> <Gold.Score>
     Fitness  S(hb_ext) S(vdw_ext)  S(hb_int)    S(int)      intcor
     41.48      11.51      22.38       0.00      -0.80      -0.77

> <Gold.Goldscore.Fitness>
41.4773

> <Gold.Goldscore.Internal.Vdw>
-0.9899

> <Gold.Goldscore.Internal.Torsion>
-0.5747

> <Gold.Goldscore.External.Vdw>
22.3787

> <Gold.Goldscore.Internal.HBond>
0.0000

> <Gold.Goldscore.External.HBond>
11.5059

> <Gold.Goldscore.Internal.Correction>
-0.7653

> <Gold.Goldscore.Hbonds>
donor molecule, donor type, donor heavy atom, donor atom, acceptor molecule, acceptor atom, score
      P1  H  2593  2604       L1    17  1.00
      P1  H   615   624       L1     9  0.83
      P1  H   620   625       L1     9  0.82
      L1  H    10    23       P1  2561  0.37

> <Gold.Goldscore.Internal.Vdw.Weighted>
-0.9899

> <Gold.Goldscore.Internal.Torsion.Weighted>
-0.5747

> <Gold.Goldscore.External.Vdw.Weighted>
30.7707

> <Gold.Goldscore.Internal.HBond.Weighted>
0.0000

> <Gold.Goldscore.External.HBond.Weighted>
11.5059

> <Gold.Goldscore.Internal.Correction.Weighted>
-0.7653

> <Gold.Rescore>
     Score     S(PLP)   S(hbond)     S(cho)   S(metal)  DE(clash)   DE(tors)     intcor
     45.06     -37.94       3.00       0.00       0.00       0.01       0.93       ----

> <Gold.PLP.Fitness>
45.0632

> <Gold.PLP.PLP>
-37.9363

> <Gold.PLP.part.hbond>
-3.9902

> <Gold.PLP.part.metal>
0.0000

> <Gold.PLP.part.buried>
-2.7142

> <Gold.PLP.part.nonpolar>
-33.1347

> <Gold.PLP.part.repulsive>
0.3808

> <Gold.PLP.ligand.clash>
0.0147

> <Gold.PLP.ligand.torsion>
0.9292

> <Gold.PLP.Chemscore.Hbond>
3.0000

> <Gold.PLP.Chemscore.CHOScore>
0.0000

> <Gold.PLP.Chemscore.Metal>
0.0000

> <Gold.Chemscore.Hbonds>
donor molecule, donor type, donor heavy atom, donor atom, acceptor molecule, acceptor atom, score
      L1  H    10    23       P1  2561  0.03
      P1  H  2593  2604       L1    17  0.63
      P1  H   615   624       L1     9  1.00
      P1  H   620   625       L1     9  0.93

> <Gold.PLP.Chemscore.Internal.Correction>
   9.000000E+99

