#       Name:                CT1002167954
#       Creating user name   hitesit
#       Creation time:       Sun Apr 16 22:50:34 2023


#       File generated by GOLD software.
#

@<TRIPOS>MOLECULE
CT1002167954|ligand_prepared|mol2|1|dock10
    29    30     1
SMALL
NO_CHARGES


@<TRIPOS>ATOM
      1 C1          24.5823  -9.7486   2.0737 C.3            1 RES1               0.0000
      2 C2          24.1285 -10.9863   1.2731 C.ar           1 RES1               0.0000
      3 C3          23.3626  -9.2753   2.8588 C.2            1 RES1               0.0000
      4 C4          25.7445 -10.2081   2.9471 C.2            1 RES1               0.0000
      5 C5          25.0810  -8.5814   1.1903 C.3            1 RES1               0.0000
      6 C6          23.9872 -12.2217   1.8980 C.ar           1 RES1               0.0000
      7 C7          23.8454 -10.9078  -0.0879 C.ar           1 RES1               0.0000
      8 N8          23.3447  -9.5122   4.2018 N.am           1 RES1               0.0000
      9 O9          22.4133  -8.7377   2.3019 O.2            1 RES1               0.0000
     10 N10         25.5678 -10.2024   4.3060 N.am           1 RES1               0.0000
     11 O11         26.8058 -10.5909   2.4702 O.2            1 RES1               0.0000
     12 C12         25.8208  -7.5005   1.9626 C.3            1 RES1               0.0000
     13 C13         23.5749 -13.3376   1.1887 C.ar           1 RES1               0.0000
     14 C14         23.4335 -12.0251  -0.7954 C.ar           1 RES1               0.0000
     15 C15         24.4101  -9.9044   4.9716 C.2            1 RES1               0.0000
     16 C16         23.2974 -13.2400  -0.1581 C.ar           1 RES1               0.0000
     17 O17         24.3133  -9.9748   6.1934 O.2            1 RES1               0.0000
     18 H18         25.7486  -8.9833   0.4181 H              1 RES1               0.0000
     19 H19         24.2194  -8.1275   0.6854 H              1 RES1               0.0000
     20 H20         24.2034 -12.3183   2.9567 H              1 RES1               0.0000
     21 H21         23.9465  -9.9625  -0.6102 H              1 RES1               0.0000
     22 H22         22.4570  -9.3862   4.6776 H              1 RES1               0.0000
     23 H23         26.3742 -10.4424   4.8740 H              1 RES1               0.0000
     24 H24         26.1489  -6.7059   1.2958 H              1 RES1               0.0000
     25 H25         25.1782  -7.0612   2.7228 H              1 RES1               0.0000
     26 H26         26.6984  -7.9119   2.4571 H              1 RES1               0.0000
     27 H27         23.4707 -14.2918   1.6946 H              1 RES1               0.0000
     28 H28         23.2168 -11.9438  -1.8554 H              1 RES1               0.0000
     29 H29         22.9741 -14.1143  -0.7134 H              1 RES1               0.0000
@<TRIPOS>BOND
    1    1    2 1     
    2    1    3 1     
    3    1    4 1     
    4    1    5 1     
    5    2    6 ar    
    6    2    7 ar    
    7    3    8 1     
    8    3    9 2     
    9    4   10 1     
   10    4   11 2     
   11    5   12 1     
   12    5   18 1     
   13    5   19 1     
   14    6   13 ar    
   15    6   20 1     
   16    7   14 ar    
   17    7   21 1     
   18    8   15 1     
   19    8   22 1     
   20   10   15 1     
   21   10   23 1     
   22   12   24 1     
   23   12   25 1     
   24   12   26 1     
   25   13   16 ar    
   26   13   27 1     
   27   14   16 ar    
   28   14   28 1     
   29   15   17 2     
   30   16   29 1     
@<TRIPOS>SUBSTRUCTURE
      1 RES1           1
@<TRIPOS>SET
DONOR_HYDROGENS      STATIC     ATOMS    <user>   **** ""
2 22 23
ATOM$RED        STATIC     ATOMS    COLORGROUP SYSTEM
2 22 23
@<TRIPOS>COMMENT
> <Gold.Version>
2022.3.0

> <Gold.Id.Protein>
unknown|3owp_clean|pdb

> <Gold.Protein.RotatedTorsions>
[ 3671 3662 3661 3659 ] final -177.64 input   60.00 | X-H torsion
[ 3591 3582 3581 3579 ] final  162.73 input   60.01 | X-H torsion
[ 3859 3850 3849 3847 ] final   15.45 input   60.02 | X-H torsion
[ 3132 3125 3123 3120 ] final  140.35 input   60.00 | X-H torsion
[ 5167 5158 5157 5155 ] final   68.55 input   60.02 | X-H torsion
[ 2604 2593 2592 2591 ] final  -76.60 input   59.97 | X-H torsion
[  605  600  598  595 ] final   65.95 input   60.04 | X-H torsion
[ 1932 1928 1927 1924 ] final  101.72 input   59.99 | X-H torsion
[ 3182 3173 3172 3170 ] final   87.46 input   60.01 | X-H torsion
[  625  620  619  616 ] final  -78.34 input   60.02 | X-H torsion

> <Gold.Protein.ActiveResidues>
 LEU49   GLY50   THR51   GLY52   SER53   PHE54   GLY55   VAL79   LEU82   LYS83  
 GLN84   HIS87   THR88   GLY126  GLU127  MET128  PHE129  SER130  HIS131  LEU132 
 ARG133  ARG134  ILE135  GLY136  ARG137  ARG165  ASP166  LEU167  LYS168  PRO169 
 GLU170  ASN171  LEU172  LEU173  ASP184  GLY186  PHE187  TPO197  LEU198  CYS199 
 GLY200  THR201  PRO202  GLU203  TYR204  LEU205  ILE209  ILE210  VAL226  LEU227 
 TYR229  GLU230  ALA233  GLY234  TYR235  PRO236  PRO237  PHE238  PHE239  ALA240 
 ASP241  GLN242  PRO243  ILE244  GLN245  ILE246  TYR247  LYS249  ARG256  PHE257 
 PRO258  SER259  ASN326  PHE327  ASP328  ASP329  TYR330 

> <Gold.Protein.RotatedAtoms>
   19.4022  -13.2251    5.5699 H   0  0  0  0  0  0  0  0  0  0  0  0  # atno 605  bound_to 600 
   16.8016  -11.4186   -1.2942 H   0  0  0  0  0  0  0  0  0  0  0  0  # atno 625  bound_to 620 
   26.6987   -5.0576   11.2047 H   0  0  0  0  0  0  0  0  0  0  0  0  # atno 1932 bound_to 1928
   19.0635   -4.3197    1.7411 H   0  0  0  0  0  0  0  0  0  0  0  0  # atno 2604 bound_to 2593
   18.8246   -3.4806    0.3323 H   0  0  0  0  0  0  0  0  0  0  0  0  # atno 2605 bound_to 2593
   19.5722   -4.9593    0.2998 H   0  0  0  0  0  0  0  0  0  0  0  0  # atno 2606 bound_to 2593
   18.8867   -1.9999   -0.4616 H   0  0  0  0  0  0  0  0  0  0  0  0  # atno 3132 bound_to 3125
   21.9261    3.7520    3.8659 H   0  0  0  0  0  0  0  0  0  0  0  0  # atno 3182 bound_to 3173
   16.2693   14.8835    7.5015 H   0  0  0  0  0  0  0  0  0  0  0  0  # atno 3591 bound_to 3582
   16.6651   13.7561   12.9468 H   0  0  0  0  0  0  0  0  0  0  0  0  # atno 3671 bound_to 3662
   10.3490   -0.4007   -2.3631 H   0  0  0  0  0  0  0  0  0  0  0  0  # atno 3859 bound_to 3850
   23.5703  -10.4421    8.6111 H   0  0  0  0  0  0  0  0  0  0  0  0  # atno 5167 bound_to 5158
   15.3537   13.8689   11.9894 LP  0  0  0  0  0  0  0  0  0  0  0  0  # atno 5485 bound_to 3662
   16.8464   14.0837   11.3628 LP  0  0  0  0  0  0  0  0  0  0  0  0  # atno 5486 bound_to 3662
   16.4639   13.6782    8.5774 LP  0  0  0  0  0  0  0  0  0  0  0  0  # atno 5493 bound_to 3582
   15.4600   13.4857    7.3040 LP  0  0  0  0  0  0  0  0  0  0  0  0  # atno 5494 bound_to 3582
    9.4963   -0.8425   -3.6769 LP  0  0  0  0  0  0  0  0  0  0  0  0  # atno 5549 bound_to 3850
    8.8700   -1.0557   -2.1839 LP  0  0  0  0  0  0  0  0  0  0  0  0  # atno 5550 bound_to 3850
   17.8083   -2.5050   -1.5705 LP  0  0  0  0  0  0  0  0  0  0  0  0  # atno 5553 bound_to 3125
   17.6656   -2.9777   -0.0139 LP  0  0  0  0  0  0  0  0  0  0  0  0  # atno 5554 bound_to 3125
   23.2911  -10.0170   10.1566 LP  0  0  0  0  0  0  0  0  0  0  0  0  # atno 5563 bound_to 5158
   22.0402  -10.2869    9.1421 LP  0  0  0  0  0  0  0  0  0  0  0  0  # atno 5564 bound_to 5158
   20.5484  -13.1887    6.7244 LP  0  0  0  0  0  0  0  0  0  0  0  0  # atno 5571 bound_to 600 
   19.3139  -14.2526    6.8286 LP  0  0  0  0  0  0  0  0  0  0  0  0  # atno 5572 bound_to 600 
   25.2885   -4.7278   11.9460 LP  0  0  0  0  0  0  0  0  0  0  0  0  # atno 5573 bound_to 1928
   26.3820   -5.7062   12.6627 LP  0  0  0  0  0  0  0  0  0  0  0  0  # atno 5574 bound_to 1928
   20.6228    4.5738    4.3905 LP  0  0  0  0  0  0  0  0  0  0  0  0  # atno 5603 bound_to 3173
   21.7921    5.3428    3.5490 LP  0  0  0  0  0  0  0  0  0  0  0  0  # atno 5604 bound_to 3173
   16.0892  -11.8388   -2.6956 LP  0  0  0  0  0  0  0  0  0  0  0  0  # atno 5611 bound_to 620 
   17.3919  -12.6643   -2.1588 LP  0  0  0  0  0  0  0  0  0  0  0  0  # atno 5612 bound_to 620 

> <Gold.Score>
     Fitness  S(hb_ext) S(vdw_ext)  S(hb_int)    S(int)      intcor
     33.85       0.77      24.29       0.00      -0.32      -0.76

> <Gold.Goldscore.Fitness>
33.8506

> <Gold.Goldscore.Internal.Vdw>
-0.4378

> <Gold.Goldscore.Internal.Torsion>
-0.6406

> <Gold.Goldscore.External.Vdw>
24.2889

> <Gold.Goldscore.Internal.HBond>
0.0000

> <Gold.Goldscore.External.HBond>
0.7732

> <Gold.Goldscore.Internal.Correction>
-0.7585

> <Gold.Goldscore.Hbonds>
donor molecule, donor type, donor heavy atom, donor atom, acceptor molecule, acceptor atom, score
      P1  H  5158  5167       L1    17  0.39

> <Gold.Goldscore.Internal.Vdw.Weighted>
-0.4378

> <Gold.Goldscore.Internal.Torsion.Weighted>
-0.6406

> <Gold.Goldscore.External.Vdw.Weighted>
33.3972

> <Gold.Goldscore.Internal.HBond.Weighted>
0.0000

> <Gold.Goldscore.External.HBond.Weighted>
0.7732

> <Gold.Goldscore.Internal.Correction.Weighted>
-0.7585

> <Gold.Rescore>
     Score     S(PLP)   S(hbond)     S(cho)   S(metal)  DE(clash)   DE(tors)     intcor
     31.79     -34.06       0.17       0.00       0.00       0.00       1.39       ----

> <Gold.PLP.Fitness>
31.7854

> <Gold.PLP.PLP>
-34.0647

> <Gold.PLP.part.hbond>
-1.5472

> <Gold.PLP.part.metal>
0.0000

> <Gold.PLP.part.buried>
-2.7364

> <Gold.PLP.part.nonpolar>
-29.7144

> <Gold.PLP.part.repulsive>
0.5077

> <Gold.PLP.ligand.clash>
0.0000

> <Gold.PLP.ligand.torsion>
1.3881

> <Gold.PLP.Chemscore.Hbond>
0.1656

> <Gold.PLP.Chemscore.CHOScore>
0.0000

> <Gold.PLP.Chemscore.Metal>
0.0000

> <Gold.PLP.Chemscore.Internal.Correction>
   9.000000E+99

