#       Name:                CT1002167954
#       Creating user name   hitesit
#       Creation time:       Sun Apr 16 22:50:28 2023


#       File generated by GOLD software.
#

@<TRIPOS>MOLECULE
CT1002167954|ligand_prepared|mol2|1|dock6
    29    30     1
SMALL
NO_CHARGES


@<TRIPOS>ATOM
      1 C1          23.2558  -9.0273   2.8900 C.3            1 RES1               0.0000
      2 C2          23.2907 -10.3921   2.1725 C.ar           1 RES1               0.0000
      3 C3          23.1112  -7.9723   1.7971 C.2            1 RES1               0.0000
      4 C4          22.0799  -9.0846   3.8588 C.2            1 RES1               0.0000
      5 C5          24.5324  -8.7175   3.7060 C.3            1 RES1               0.0000
      6 C6          23.7052 -11.5368   2.8469 C.ar           1 RES1               0.0000
      7 C7          22.9097 -10.5226   0.8397 C.ar           1 RES1               0.0000
      8 N8          21.8975  -7.3653   1.6616 N.am           1 RES1               0.0000
      9 O9          24.0364  -7.7055   1.0401 O.2            1 RES1               0.0000
     10 N10         21.0186  -8.2484   3.6307 N.am           1 RES1               0.0000
     11 O11         22.0555  -9.8582   4.8082 O.2            1 RES1               0.0000
     12 C12         24.5806  -7.3001   4.2544 C.3            1 RES1               0.0000
     13 C13         23.7348 -12.7678   2.2128 C.ar           1 RES1               0.0000
     14 C14         22.9403 -11.7545   0.2074 C.ar           1 RES1               0.0000
     15 C15         20.8607  -7.4131   2.5584 C.2            1 RES1               0.0000
     16 C16         23.3520 -12.8776   0.8929 C.ar           1 RES1               0.0000
     17 O17         19.8527  -6.7318   2.3941 O.2            1 RES1               0.0000
     18 H18         24.5957  -9.4226   4.5439 H              1 RES1               0.0000
     19 H19         25.4084  -8.8782   3.0656 H              1 RES1               0.0000
     20 H20         24.0124 -11.4694   3.8852 H              1 RES1               0.0000
     21 H21         22.5833  -9.6524   0.2803 H              1 RES1               0.0000
     22 H22         21.7468  -6.8259   0.8150 H              1 RES1               0.0000
     23 H23         20.2777  -8.2484   4.3245 H              1 RES1               0.0000
     24 H24         25.4963  -7.1356   4.8184 H              1 RES1               0.0000
     25 H25         24.5450  -6.5724   3.4463 H              1 RES1               0.0000
     26 H26         23.7370  -7.1135   4.9158 H              1 RES1               0.0000
     27 H27         24.0609 -13.6484   2.7563 H              1 RES1               0.0000
     28 H28         22.6388 -11.8362  -0.8317 H              1 RES1               0.0000
     29 H29         23.3750 -13.8421   0.3965 H              1 RES1               0.0000
@<TRIPOS>BOND
    1    1    2 1     
    2    1    3 1     
    3    1    4 1     
    4    1    5 1     
    5    2    6 ar    
    6    2    7 ar    
    7    3    8 1     
    8    3    9 2     
    9    4   10 1     
   10    4   11 2     
   11    5   12 1     
   12    5   18 1     
   13    5   19 1     
   14    6   13 ar    
   15    6   20 1     
   16    7   14 ar    
   17    7   21 1     
   18    8   15 1     
   19    8   22 1     
   20   10   15 1     
   21   10   23 1     
   22   12   24 1     
   23   12   25 1     
   24   12   26 1     
   25   13   16 ar    
   26   13   27 1     
   27   14   16 ar    
   28   14   28 1     
   29   15   17 2     
   30   16   29 1     
@<TRIPOS>SUBSTRUCTURE
      1 RES1           1
@<TRIPOS>SET
DONOR_HYDROGENS      STATIC     ATOMS    <user>   **** ""
2 22 23
ATOM$RED        STATIC     ATOMS    COLORGROUP SYSTEM
2 22 23
@<TRIPOS>COMMENT
> <Gold.Version>
2022.3.0

> <Gold.Id.Protein>
unknown|3owp_clean|pdb

> <Gold.Protein.RotatedTorsions>
[ 3671 3662 3661 3659 ] final  137.43 input   60.00 | X-H torsion
[ 3591 3582 3581 3579 ] final  -67.00 input   60.01 | X-H torsion
[ 3859 3850 3849 3847 ] final  152.20 input   60.02 | X-H torsion
[ 3132 3125 3123 3120 ] final   80.76 input   60.00 | X-H torsion
[ 5167 5158 5157 5155 ] final  123.35 input   60.02 | X-H torsion
[ 2604 2593 2592 2591 ] final  113.06 input   59.97 | X-H torsion
[  605  600  598  595 ] final   13.40 input   60.04 | X-H torsion
[ 1932 1928 1927 1924 ] final   99.25 input   59.99 | X-H torsion
[ 3182 3173 3172 3170 ] final  120.26 input   60.01 | X-H torsion
[  625  620  619  616 ] final   64.56 input   60.02 | X-H torsion

> <Gold.Protein.ActiveResidues>
 LEU49   GLY50   THR51   GLY52   SER53   PHE54   GLY55   VAL79   LEU82   LYS83  
 GLN84   HIS87   THR88   GLY126  GLU127  MET128  PHE129  SER130  HIS131  LEU132 
 ARG133  ARG134  ILE135  GLY136  ARG137  ARG165  ASP166  LEU167  LYS168  PRO169 
 GLU170  ASN171  LEU172  LEU173  ASP184  GLY186  PHE187  TPO197  LEU198  CYS199 
 GLY200  THR201  PRO202  GLU203  TYR204  LEU205  ILE209  ILE210  VAL226  LEU227 
 TYR229  GLU230  ALA233  GLY234  TYR235  PRO236  PRO237  PHE238  PHE239  ALA240 
 ASP241  GLN242  PRO243  ILE244  GLN245  ILE246  TYR247  LYS249  ARG256  PHE257 
 PRO258  SER259  ASN326  PHE327  ASP328  ASP329  TYR330 

> <Gold.Protein.RotatedAtoms>
   20.1022  -12.8705    5.8367 H   0  0  0  0  0  0  0  0  0  0  0  0  # atno 605  bound_to 600 
   17.1771  -12.7019   -2.4617 H   0  0  0  0  0  0  0  0  0  0  0  0  # atno 625  bound_to 620 
   26.6711   -5.0335   11.1876 H   0  0  0  0  0  0  0  0  0  0  0  0  # atno 1932 bound_to 1928
   19.3144   -4.3308   -0.1488 H   0  0  0  0  0  0  0  0  0  0  0  0  # atno 2604 bound_to 2593
   19.4282   -4.9527    1.3829 H   0  0  0  0  0  0  0  0  0  0  0  0  # atno 2605 bound_to 2593
   18.7175   -3.4756    1.1386 H   0  0  0  0  0  0  0  0  0  0  0  0  # atno 2606 bound_to 2593
   18.5792   -2.0090   -1.3395 H   0  0  0  0  0  0  0  0  0  0  0  0  # atno 3132 bound_to 3125
   22.2130    4.1188    3.6152 H   0  0  0  0  0  0  0  0  0  0  0  0  # atno 3182 bound_to 3173
   15.4958   13.3728    7.4237 H   0  0  0  0  0  0  0  0  0  0  0  0  # atno 3591 bound_to 3582
   15.9507   13.7114   12.9536 H   0  0  0  0  0  0  0  0  0  0  0  0  # atno 3671 bound_to 3662
    8.7620   -1.1129   -2.4288 H   0  0  0  0  0  0  0  0  0  0  0  0  # atno 3859 bound_to 3850
   22.7297  -10.4873    8.4286 H   0  0  0  0  0  0  0  0  0  0  0  0  # atno 5167 bound_to 5158
   15.6999   14.0118   11.3737 LP  0  0  0  0  0  0  0  0  0  0  0  0  # atno 5485 bound_to 3662
   17.2193   13.9858   11.9716 LP  0  0  0  0  0  0  0  0  0  0  0  0  # atno 5486 bound_to 3662
   16.1620   14.8567    7.3746 LP  0  0  0  0  0  0  0  0  0  0  0  0  # atno 5493 bound_to 3582
   16.5407   13.8282    8.5852 LP  0  0  0  0  0  0  0  0  0  0  0  0  # atno 5494 bound_to 3582
   10.2179   -0.4508   -2.1282 LP  0  0  0  0  0  0  0  0  0  0  0  0  # atno 5549 bound_to 3850
    9.7468   -0.7301   -3.6666 LP  0  0  0  0  0  0  0  0  0  0  0  0  # atno 5550 bound_to 3850
   17.3520   -2.9870   -0.9093 LP  0  0  0  0  0  0  0  0  0  0  0  0  # atno 5553 bound_to 3125
   18.4317   -2.4866    0.2090 LP  0  0  0  0  0  0  0  0  0  0  0  0  # atno 5554 bound_to 3125
   23.8785  -10.1879    9.5412 LP  0  0  0  0  0  0  0  0  0  0  0  0  # atno 5563 bound_to 5158
   22.2997  -10.0704    9.9414 LP  0  0  0  0  0  0  0  0  0  0  0  0  # atno 5564 bound_to 5158
   20.1980  -13.8047    7.1656 LP  0  0  0  0  0  0  0  0  0  0  0  0  # atno 5571 bound_to 600 
   18.9591  -13.9937    6.1187 LP  0  0  0  0  0  0  0  0  0  0  0  0  # atno 5572 bound_to 600 
   25.2813   -4.7444   11.9825 LP  0  0  0  0  0  0  0  0  0  0  0  0  # atno 5573 bound_to 1928
   26.4170   -5.7140   12.6434 LP  0  0  0  0  0  0  0  0  0  0  0  0  # atno 5574 bound_to 1928
   20.7978    4.0717    4.4176 LP  0  0  0  0  0  0  0  0  0  0  0  0  # atno 5603 bound_to 3173
   21.3283    5.4757    3.7741 LP  0  0  0  0  0  0  0  0  0  0  0  0  # atno 5604 bound_to 3173
   17.0929  -11.6426   -1.2293 LP  0  0  0  0  0  0  0  0  0  0  0  0  # atno 5611 bound_to 620 
   16.0100  -11.5681   -2.4493 LP  0  0  0  0  0  0  0  0  0  0  0  0  # atno 5612 bound_to 620 

> <Gold.Score>
     Fitness  S(hb_ext) S(vdw_ext)  S(hb_int)    S(int)      intcor
     33.10       5.92      20.71       0.00      -1.30      -0.76

> <Gold.Goldscore.Fitness>
33.0977

> <Gold.Goldscore.Internal.Vdw>
-1.5858

> <Gold.Goldscore.Internal.Torsion>
-0.4721

> <Gold.Goldscore.External.Vdw>
20.7136

> <Gold.Goldscore.Internal.HBond>
0.0000

> <Gold.Goldscore.External.HBond>
5.9160

> <Gold.Goldscore.Internal.Correction>
-0.7585

> <Gold.Goldscore.Hbonds>
donor molecule, donor type, donor heavy atom, donor atom, acceptor molecule, acceptor atom, score
      P1  H  2593  2605       L1    17  0.99

> <Gold.Goldscore.Internal.Vdw.Weighted>
-1.5858

> <Gold.Goldscore.Internal.Torsion.Weighted>
-0.4721

> <Gold.Goldscore.External.Vdw.Weighted>
28.4811

> <Gold.Goldscore.Internal.HBond.Weighted>
0.0000

> <Gold.Goldscore.External.HBond.Weighted>
5.9160

> <Gold.Goldscore.Internal.Correction.Weighted>
-0.7585

> <Gold.Rescore>
     Score     S(PLP)   S(hbond)     S(cho)   S(metal)  DE(clash)   DE(tors)     intcor
     30.72     -31.82       0.38       0.00       0.00       1.31       0.47       ----

> <Gold.PLP.Fitness>
30.7198

> <Gold.PLP.PLP>
-31.8242

> <Gold.PLP.part.hbond>
-1.9281

> <Gold.PLP.part.metal>
0.0000

> <Gold.PLP.part.buried>
-6.6784

> <Gold.PLP.part.nonpolar>
-26.5741

> <Gold.PLP.part.repulsive>
1.3963

> <Gold.PLP.ligand.clash>
1.3122

> <Gold.PLP.ligand.torsion>
0.4721

> <Gold.PLP.Chemscore.Hbond>
0.3840

> <Gold.PLP.Chemscore.CHOScore>
0.0000

> <Gold.PLP.Chemscore.Metal>
0.0000

> <Gold.Chemscore.Hbonds>
donor molecule, donor type, donor heavy atom, donor atom, acceptor molecule, acceptor atom, score
      P1  H  2593  2605       L1    17  1.00

> <Gold.PLP.Chemscore.Internal.Correction>
   9.000000E+99

