#       Name:                CT1002167954
#       Creating user name   hitesit
#       Creation time:       Sun Apr 16 22:50:25 2023


#       File generated by GOLD software.
#

@<TRIPOS>MOLECULE
CT1002167954|ligand_prepared|mol2|1|dock3
    29    30     1
SMALL
NO_CHARGES


@<TRIPOS>ATOM
      1 C1          20.5870 -10.6850  -1.5281 C.3            1 RES1               0.0000
      2 C2          21.4782 -11.7544  -0.8641 C.ar           1 RES1               0.0000
      3 C3          19.5081 -10.3328  -0.5082 C.2            1 RES1               0.0000
      4 C4          21.5083  -9.5238  -1.8853 C.2            1 RES1               0.0000
      5 C5          19.8975 -11.1647  -2.8266 C.3            1 RES1               0.0000
      6 C6          21.5689 -13.0347  -1.4020 C.ar           1 RES1               0.0000
      7 C7          22.2162 -11.4753   0.2831 C.ar           1 RES1               0.0000
      8 N8          19.6084  -9.1307   0.1281 N.am           1 RES1               0.0000
      9 O9          18.6051 -11.1148  -0.2374 O.2            1 RES1               0.0000
     10 N10         21.3185  -8.3310  -1.2379 N.am           1 RES1               0.0000
     11 O11         22.4075  -9.6358  -2.7094 O.2            1 RES1               0.0000
     12 C12         19.0330 -10.1039  -3.4897 C.3            1 RES1               0.0000
     13 C13         22.3707 -14.0002  -0.8161 C.ar           1 RES1               0.0000
     14 C14         23.0172 -12.4424   0.8676 C.ar           1 RES1               0.0000
     15 C15         20.4302  -8.0908  -0.2253 C.2            1 RES1               0.0000
     16 C16         23.0956 -13.7047   0.3187 C.ar           1 RES1               0.0000
     17 O17         20.3558  -7.0063   0.3453 O.2            1 RES1               0.0000
     18 H18         20.6684 -11.4869  -3.5374 H              1 RES1               0.0000
     19 H19         19.2717 -12.0350  -2.5934 H              1 RES1               0.0000
     20 H20         21.0038 -13.2865  -2.2932 H              1 RES1               0.0000
     21 H21         22.1691 -10.4894   0.7329 H              1 RES1               0.0000
     22 H22         19.0178  -8.9922   0.9419 H              1 RES1               0.0000
     23 H23         21.8925  -7.5499  -1.5388 H              1 RES1               0.0000
     24 H24         18.5729 -10.4924  -4.3958 H              1 RES1               0.0000
     25 H25         18.2399  -9.7785  -2.8196 H              1 RES1               0.0000
     26 H26         19.6284  -9.2337  -3.7581 H              1 RES1               0.0000
     27 H27         22.4279 -14.9925  -1.2511 H              1 RES1               0.0000
     28 H28         23.5855 -12.2055   1.7610 H              1 RES1               0.0000
     29 H29         23.7239 -14.4610   0.7773 H              1 RES1               0.0000
@<TRIPOS>BOND
    1    1    2 1     
    2    1    3 1     
    3    1    4 1     
    4    1    5 1     
    5    2    6 ar    
    6    2    7 ar    
    7    3    8 1     
    8    3    9 2     
    9    4   10 1     
   10    4   11 2     
   11    5   12 1     
   12    5   18 1     
   13    5   19 1     
   14    6   13 ar    
   15    6   20 1     
   16    7   14 ar    
   17    7   21 1     
   18    8   15 1     
   19    8   22 1     
   20   10   15 1     
   21   10   23 1     
   22   12   24 1     
   23   12   25 1     
   24   12   26 1     
   25   13   16 ar    
   26   13   27 1     
   27   14   16 ar    
   28   14   28 1     
   29   15   17 2     
   30   16   29 1     
@<TRIPOS>SUBSTRUCTURE
      1 RES1           1
@<TRIPOS>SET
DONOR_HYDROGENS      STATIC     ATOMS    <user>   **** ""
2 22 23
ATOM$RED        STATIC     ATOMS    COLORGROUP SYSTEM
2 22 23
@<TRIPOS>COMMENT
> <Gold.Version>
2022.3.0

> <Gold.Id.Protein>
unknown|3owp_clean|pdb

> <Gold.Protein.RotatedTorsions>
[ 3671 3662 3661 3659 ] final  147.29 input   60.00 | X-H torsion
[ 3591 3582 3581 3579 ] final  106.47 input   60.01 | X-H torsion
[ 3859 3850 3849 3847 ] final  -99.74 input   60.02 | X-H torsion
[ 3132 3125 3123 3120 ] final  -24.37 input   60.00 | X-H torsion
[ 5167 5158 5157 5155 ] final   82.40 input   60.02 | X-H torsion
[ 2604 2593 2592 2591 ] final   64.82 input   59.97 | X-H torsion
[  605  600  598  595 ] final   13.56 input   60.04 | X-H torsion
[ 1932 1928 1927 1924 ] final   15.45 input   59.99 | X-H torsion
[ 3182 3173 3172 3170 ] final  114.05 input   60.01 | X-H torsion
[  625  620  619  616 ] final  -49.23 input   60.02 | X-H torsion

> <Gold.Protein.ActiveResidues>
 LEU49   GLY50   THR51   GLY52   SER53   PHE54   GLY55   VAL79   LEU82   LYS83  
 GLN84   HIS87   THR88   GLY126  GLU127  MET128  PHE129  SER130  HIS131  LEU132 
 ARG133  ARG134  ILE135  GLY136  ARG137  ARG165  ASP166  LEU167  LYS168  PRO169 
 GLU170  ASN171  LEU172  LEU173  ASP184  GLY186  PHE187  TPO197  LEU198  CYS199 
 GLY200  THR201  PRO202  GLU203  TYR204  LEU205  ILE209  ILE210  VAL226  LEU227 
 TYR229  GLU230  ALA233  GLY234  TYR235  PRO236  PRO237  PHE238  PHE239  ALA240 
 ASP241  GLN242  PRO243  ILE244  GLN245  ILE246  TYR247  LYS249  ARG256  PHE257 
 PRO258  SER259  ASN326  PHE327  ASP328  ASP329  TYR330 

> <Gold.Protein.RotatedAtoms>
   20.1002  -12.8708    5.8350 H   0  0  0  0  0  0  0  0  0  0  0  0  # atno 605  bound_to 600 
   17.1597  -11.7190   -1.2396 H   0  0  0  0  0  0  0  0  0  0  0  0  # atno 625  bound_to 620 
   25.5372   -4.5961   11.4792 H   0  0  0  0  0  0  0  0  0  0  0  0  # atno 1932 bound_to 1928
   18.9546   -3.6688    0.0600 H   0  0  0  0  0  0  0  0  0  0  0  0  # atno 2604 bound_to 2593
   19.5935   -5.0873    0.6307 H   0  0  0  0  0  0  0  0  0  0  0  0  # atno 2605 bound_to 2593
   18.9119   -4.0028    1.6823 H   0  0  0  0  0  0  0  0  0  0  0  0  # atno 2606 bound_to 2593
   17.4039   -2.8945   -1.1280 H   0  0  0  0  0  0  0  0  0  0  0  0  # atno 3132 bound_to 3125
   22.1756    4.0342    3.6571 H   0  0  0  0  0  0  0  0  0  0  0  0  # atno 3182 bound_to 3173
   16.6577   14.5901    8.2382 H   0  0  0  0  0  0  0  0  0  0  0  0  # atno 3591 bound_to 3582
   16.1049   13.7116   12.9997 H   0  0  0  0  0  0  0  0  0  0  0  0  # atno 3671 bound_to 3662
    9.5678   -0.8085   -3.6757 H   0  0  0  0  0  0  0  0  0  0  0  0  # atno 3859 bound_to 3850
   23.3811  -10.4735    8.4920 H   0  0  0  0  0  0  0  0  0  0  0  0  # atno 5167 bound_to 5158
   15.5829   13.9832   11.4822 LP  0  0  0  0  0  0  0  0  0  0  0  0  # atno 5485 bound_to 3662
   17.1810   14.0142   11.8167 LP  0  0  0  0  0  0  0  0  0  0  0  0  # atno 5486 bound_to 3662
   15.8979   13.1548    8.1346 LP  0  0  0  0  0  0  0  0  0  0  0  0  # atno 5493 bound_to 3582
   15.6349   14.3045    7.0051 LP  0  0  0  0  0  0  0  0  0  0  0  0  # atno 5494 bound_to 3582
    8.8310   -1.0761   -2.2495 LP  0  0  0  0  0  0  0  0  0  0  0  0  # atno 5549 bound_to 3850
   10.3221   -0.4114   -2.2894 LP  0  0  0  0  0  0  0  0  0  0  0  0  # atno 5550 bound_to 3850
   18.2389   -2.6319    0.2437 LP  0  0  0  0  0  0  0  0  0  0  0  0  # atno 5553 bound_to 3125
   18.7285   -1.9499   -1.1569 LP  0  0  0  0  0  0  0  0  0  0  0  0  # atno 5554 bound_to 3125
   23.4939  -10.0451   10.0575 LP  0  0  0  0  0  0  0  0  0  0  0  0  # atno 5563 bound_to 5158
   22.0280  -10.2271    9.3612 LP  0  0  0  0  0  0  0  0  0  0  0  0  # atno 5564 bound_to 5158
   20.1999  -13.8029    7.1651 LP  0  0  0  0  0  0  0  0  0  0  0  0  # atno 5571 bound_to 600 
   18.9593  -13.9953    6.1209 LP  0  0  0  0  0  0  0  0  0  0  0  0  # atno 5572 bound_to 600 
   25.8855   -5.5090   12.7800 LP  0  0  0  0  0  0  0  0  0  0  0  0  # atno 5573 bound_to 1928
   26.9553   -5.3901   11.5521 LP  0  0  0  0  0  0  0  0  0  0  0  0  # atno 5574 bound_to 1928
   20.7459    4.1595    4.4247 LP  0  0  0  0  0  0  0  0  0  0  0  0  # atno 5603 bound_to 3173
   21.4178    5.4730    3.7249 LP  0  0  0  0  0  0  0  0  0  0  0  0  # atno 5604 bound_to 3173
   16.0088  -11.5041   -2.3697 LP  0  0  0  0  0  0  0  0  0  0  0  0  # atno 5611 bound_to 620 
   17.1116  -12.6964   -2.5396 LP  0  0  0  0  0  0  0  0  0  0  0  0  # atno 5612 bound_to 620 

> <Gold.Score>
     Fitness  S(hb_ext) S(vdw_ext)  S(hb_int)    S(int)      intcor
     40.89       8.34      24.25       0.00      -0.80      -0.77

> <Gold.Goldscore.Fitness>
40.8858

> <Gold.Goldscore.Internal.Vdw>
-1.1946

> <Gold.Goldscore.Internal.Torsion>
-0.3676

> <Gold.Goldscore.External.Vdw>
24.2504

> <Gold.Goldscore.Internal.HBond>
0.0000

> <Gold.Goldscore.External.HBond>
8.3383

> <Gold.Goldscore.Internal.Correction>
-0.7653

> <Gold.Goldscore.Hbonds>
donor molecule, donor type, donor heavy atom, donor atom, acceptor molecule, acceptor atom, score
      P1  H  2593  2605       L1    17  1.00
      P1  H   615   624       L1     9  0.43
      P1  H   620   625       L1     9  0.53
      L1  H    10    23       P1  2846  0.07

> <Gold.Goldscore.Internal.Vdw.Weighted>
-1.1946

> <Gold.Goldscore.Internal.Torsion.Weighted>
-0.3676

> <Gold.Goldscore.External.Vdw.Weighted>
33.3443

> <Gold.Goldscore.Internal.HBond.Weighted>
0.0000

> <Gold.Goldscore.External.HBond.Weighted>
8.3383

> <Gold.Goldscore.Internal.Correction.Weighted>
-0.7653

> <Gold.Rescore>
     Score     S(PLP)   S(hbond)     S(cho)   S(metal)  DE(clash)   DE(tors)     intcor
     45.02     -36.60       3.19       0.00       0.00       0.00       0.57       ----

> <Gold.PLP.Fitness>
45.0205

> <Gold.PLP.PLP>
-36.5952

> <Gold.PLP.part.hbond>
-4.0000

> <Gold.PLP.part.metal>
0.0000

> <Gold.PLP.part.buried>
-1.6206

> <Gold.PLP.part.nonpolar>
-31.9770

> <Gold.PLP.part.repulsive>
0.3978

> <Gold.PLP.ligand.clash>
0.0000

> <Gold.PLP.ligand.torsion>
0.5681

> <Gold.PLP.Chemscore.Hbond>
3.1872

> <Gold.PLP.Chemscore.CHOScore>
0.0000

> <Gold.PLP.Chemscore.Metal>
0.0000

> <Gold.Chemscore.Hbonds>
donor molecule, donor type, donor heavy atom, donor atom, acceptor molecule, acceptor atom, score
      L1  H    10    23       P1  2846  0.59
      P1  H  2593  2605       L1    17  1.00
      P1  H   615   624       L1     9  0.41
      P1  H   620   625       L1     9  1.00

> <Gold.PLP.Chemscore.Internal.Correction>
   9.000000E+99

