#       Name:                CT1002167954
#       Creating user name   hitesit
#       Creation time:       Sun Apr 16 22:50:22 2023


#       File generated by GOLD software.
#

@<TRIPOS>MOLECULE
CT1002167954|ligand_prepared|mol2|1|dock1
    29    30     1
SMALL
NO_CHARGES


@<TRIPOS>ATOM
      1 C1          20.3439  -9.3409  -3.5231 C.3            1 RES1               0.0000
      2 C2          20.9434 -10.6002  -2.8647 C.ar           1 RES1               0.0000
      3 C3          20.0972  -9.6984  -4.9859 C.2            1 RES1               0.0000
      4 C4          19.0771  -9.0124  -2.7408 C.2            1 RES1               0.0000
      5 C5          21.2725  -8.1054  -3.4694 C.3            1 RES1               0.0000
      6 C6          22.2041 -10.5603  -2.2765 C.ar           1 RES1               0.0000
      7 C7          20.2480 -11.8060  -2.8353 C.ar           1 RES1               0.0000
      8 N8          18.8069  -9.9030  -5.3773 N.am           1 RES1               0.0000
      9 O9          21.0237  -9.8376  -5.7747 O.2            1 RES1               0.0000
     10 N10         17.8754  -9.1185  -3.3907 N.am           1 RES1               0.0000
     11 O11         19.1076  -8.6787  -1.5626 O.2            1 RES1               0.0000
     12 C12         20.7197  -6.8907  -4.1982 C.3            1 RES1               0.0000
     13 C13         22.7486 -11.6844  -1.6780 C.ar           1 RES1               0.0000
     14 C14         20.7945 -12.9291  -2.2365 C.ar           1 RES1               0.0000
     15 C15         17.6807  -9.5785  -4.6645 C.2            1 RES1               0.0000
     16 C16         22.0441 -12.8693  -1.6572 C.ar           1 RES1               0.0000
     17 O17         16.5642  -9.6969  -5.1610 O.2            1 RES1               0.0000
     18 H18         21.4452  -7.8389  -2.4194 H              1 RES1               0.0000
     19 H19         22.2406  -8.3718  -3.9112 H              1 RES1               0.0000
     20 H20         22.7743  -9.6374  -2.2854 H              1 RES1               0.0000
     21 H21         19.2638 -11.8767  -3.2857 H              1 RES1               0.0000
     22 H22         18.6663 -10.3374  -6.2838 H              1 RES1               0.0000
     23 H23         17.0495  -8.8274  -2.8773 H              1 RES1               0.0000
     24 H24         21.4100  -6.0526  -4.1295 H              1 RES1               0.0000
     25 H25         20.5596  -7.1125  -5.2512 H              1 RES1               0.0000
     26 H26         19.7688  -6.5827  -3.7682 H              1 RES1               0.0000
     27 H27         23.7330 -11.6325  -1.2247 H              1 RES1               0.0000
     28 H28         20.2368 -13.8596  -2.2229 H              1 RES1               0.0000
     29 H29         22.4708 -13.7496  -1.1879 H              1 RES1               0.0000
@<TRIPOS>BOND
    1    1    2 1     
    2    1    3 1     
    3    1    4 1     
    4    1    5 1     
    5    2    6 ar    
    6    2    7 ar    
    7    3    8 1     
    8    3    9 2     
    9    4   10 1     
   10    4   11 2     
   11    5   12 1     
   12    5   18 1     
   13    5   19 1     
   14    6   13 ar    
   15    6   20 1     
   16    7   14 ar    
   17    7   21 1     
   18    8   15 1     
   19    8   22 1     
   20   10   15 1     
   21   10   23 1     
   22   12   24 1     
   23   12   25 1     
   24   12   26 1     
   25   13   16 ar    
   26   13   27 1     
   27   14   16 ar    
   28   14   28 1     
   29   15   17 2     
   30   16   29 1     
@<TRIPOS>SUBSTRUCTURE
      1 RES1           1
@<TRIPOS>SET
DONOR_HYDROGENS      STATIC     ATOMS    <user>   **** ""
2 22 23
ATOM$RED        STATIC     ATOMS    COLORGROUP SYSTEM
2 22 23
@<TRIPOS>COMMENT
> <Gold.Version>
2022.3.0

> <Gold.Id.Protein>
unknown|3owp_clean|pdb

> <Gold.Protein.RotatedTorsions>
[ 3671 3662 3661 3659 ] final -138.26 input   60.00 | X-H torsion
[ 3591 3582 3581 3579 ] final  -79.00 input   60.01 | X-H torsion
[ 3859 3850 3849 3847 ] final   30.57 input   60.02 | X-H torsion
[ 3132 3125 3123 3120 ] final  -53.23 input   60.00 | X-H torsion
[ 5167 5158 5157 5155 ] final   71.97 input   60.02 | X-H torsion
[ 2604 2593 2592 2591 ] final -119.46 input   59.97 | X-H torsion
[  605  600  598  595 ] final   -2.35 input   60.04 | X-H torsion
[ 1932 1928 1927 1924 ] final   23.18 input   59.99 | X-H torsion
[ 3182 3173 3172 3170 ] final  -98.00 input   60.01 | X-H torsion
[  625  620  619  616 ] final   47.40 input   60.02 | X-H torsion

> <Gold.Protein.ActiveResidues>
 LEU49   GLY50   THR51   GLY52   SER53   PHE54   GLY55   VAL79   LEU82   LYS83  
 GLN84   HIS87   THR88   GLY126  GLU127  MET128  PHE129  SER130  HIS131  LEU132 
 ARG133  ARG134  ILE135  GLY136  ARG137  ARG165  ASP166  LEU167  LYS168  PRO169 
 GLU170  ASN171  LEU172  LEU173  ASP184  GLY186  PHE187  TPO197  LEU198  CYS199 
 GLY200  THR201  PRO202  GLU203  TYR204  LEU205  ILE209  ILE210  VAL226  LEU227 
 TYR229  GLU230  ALA233  GLY234  TYR235  PRO236  PRO237  PHE238  PHE239  ALA240 
 ASP241  GLN242  PRO243  ILE244  GLN245  ILE246  TYR247  LYS249  ARG256  PHE257 
 PRO258  SER259  ASN326  PHE327  ASP328  ASP329  TYR330 

> <Gold.Protein.RotatedAtoms>
   20.2820  -12.8668    6.0197 H   0  0  0  0  0  0  0  0  0  0  0  0  # atno 605  bound_to 600 
   17.3418  -12.6821   -2.2368 H   0  0  0  0  0  0  0  0  0  0  0  0  # atno 625  bound_to 620 
   25.6249   -4.5921   11.3887 H   0  0  0  0  0  0  0  0  0  0  0  0  # atno 1932 bound_to 1928
   19.3810   -4.8825    1.4746 H   0  0  0  0  0  0  0  0  0  0  0  0  # atno 2604 bound_to 2593
   18.7127   -3.4356    1.0208 H   0  0  0  0  0  0  0  0  0  0  0  0  # atno 2605 bound_to 2593
   19.3667   -4.4415   -0.1225 H   0  0  0  0  0  0  0  0  0  0  0  0  # atno 2606 bound_to 2593
   17.3575   -3.0332   -0.6850 H   0  0  0  0  0  0  0  0  0  0  0  0  # atno 3132 bound_to 3125
   21.0342    5.3944    3.9548 H   0  0  0  0  0  0  0  0  0  0  0  0  # atno 3182 bound_to 3173
   15.4631   13.5095    7.2874 H   0  0  0  0  0  0  0  0  0  0  0  0  # atno 3591 bound_to 3582
   17.1230   13.8671   12.5268 H   0  0  0  0  0  0  0  0  0  0  0  0  # atno 3671 bound_to 3662
   10.2286   -0.4451   -2.1530 H   0  0  0  0  0  0  0  0  0  0  0  0  # atno 3859 bound_to 3850
   23.5265  -10.4510    8.5777 H   0  0  0  0  0  0  0  0  0  0  0  0  # atno 5167 bound_to 5158
   15.5006   13.7575   12.5973 LP  0  0  0  0  0  0  0  0  0  0  0  0  # atno 5485 bound_to 3662
   16.2387   14.0834   11.1776 LP  0  0  0  0  0  0  0  0  0  0  0  0  # atno 5486 bound_to 3662
   16.2860   14.8935    7.5234 LP  0  0  0  0  0  0  0  0  0  0  0  0  # atno 5493 bound_to 3582
   16.4496   13.6538    8.5736 LP  0  0  0  0  0  0  0  0  0  0  0  0  # atno 5494 bound_to 3582
    9.7225   -0.7412   -3.6711 LP  0  0  0  0  0  0  0  0  0  0  0  0  # atno 5549 bound_to 3850
    8.7651   -1.1123   -2.4013 LP  0  0  0  0  0  0  0  0  0  0  0  0  # atno 5550 bound_to 3850
   18.5945   -2.3502    0.1218 LP  0  0  0  0  0  0  0  0  0  0  0  0  # atno 5553 bound_to 3125
   18.4195   -2.0920   -1.4812 LP  0  0  0  0  0  0  0  0  0  0  0  0  # atno 5554 bound_to 3125
   23.3433  -10.0227   10.1366 LP  0  0  0  0  0  0  0  0  0  0  0  0  # atno 5563 bound_to 5158
   22.0321  -10.2723    9.1958 LP  0  0  0  0  0  0  0  0  0  0  0  0  # atno 5564 bound_to 5158
   20.0020  -13.9724    7.1804 LP  0  0  0  0  0  0  0  0  0  0  0  0  # atno 5571 bound_to 600 
   18.9741  -13.8298    5.9195 LP  0  0  0  0  0  0  0  0  0  0  0  0  # atno 5572 bound_to 600 
   25.7772   -5.4440   12.7664 LP  0  0  0  0  0  0  0  0  0  0  0  0  # atno 5573 bound_to 1928
   26.9752   -5.4591   11.6569 LP  0  0  0  0  0  0  0  0  0  0  0  0  # atno 5574 bound_to 1928
   22.2780    4.4480    3.5006 LP  0  0  0  0  0  0  0  0  0  0  0  0  # atno 5603 bound_to 3173
   21.0346    3.8155    4.3494 LP  0  0  0  0  0  0  0  0  0  0  0  0  # atno 5604 bound_to 3173
   16.8785  -11.4635   -1.2630 LP  0  0  0  0  0  0  0  0  0  0  0  0  # atno 5611 bound_to 620 
   16.0586  -11.7672   -2.6422 LP  0  0  0  0  0  0  0  0  0  0  0  0  # atno 5612 bound_to 620 

> <Gold.Score>
     Fitness  S(hb_ext) S(vdw_ext)  S(hb_int)    S(int)      intcor
     33.43       0.00      25.04       0.00      -1.00      -0.82

> <Gold.Goldscore.Fitness>
33.4313

> <Gold.Goldscore.Internal.Vdw>
-1.4218

> <Gold.Goldscore.Internal.Torsion>
-0.3922

> <Gold.Goldscore.External.Vdw>
25.0399

> <Gold.Goldscore.Internal.HBond>
0.0000

> <Gold.Goldscore.External.HBond>
0.0000

> <Gold.Goldscore.Internal.Correction>
-0.8155

> <Gold.Goldscore.Internal.Vdw.Weighted>
-1.4218

> <Gold.Goldscore.Internal.Torsion.Weighted>
-0.3922

> <Gold.Goldscore.External.Vdw.Weighted>
34.4299

> <Gold.Goldscore.Internal.HBond.Weighted>
0.0000

> <Gold.Goldscore.External.HBond.Weighted>
0.0000

> <Gold.Goldscore.Internal.Correction.Weighted>
-0.8155

> <Gold.Rescore>
     Score     S(PLP)   S(hbond)     S(cho)   S(metal)  DE(clash)   DE(tors)     intcor
     30.36     -30.56       0.00       0.00       0.00       0.00       0.10       ----

> <Gold.PLP.Fitness>
30.3596

> <Gold.PLP.PLP>
-30.5558

> <Gold.PLP.part.hbond>
0.0000

> <Gold.PLP.part.metal>
0.0000

> <Gold.PLP.part.buried>
1.9965

> <Gold.PLP.part.nonpolar>
-32.6576

> <Gold.PLP.part.repulsive>
0.2006

> <Gold.PLP.ligand.clash>
0.0000

> <Gold.PLP.ligand.torsion>
0.0981

> <Gold.PLP.Chemscore.Hbond>
0.0000

> <Gold.PLP.Chemscore.CHOScore>
0.0000

> <Gold.PLP.Chemscore.Metal>
0.0000

> <Gold.PLP.Chemscore.Internal.Correction>
   9.000000E+99

