#       Name:                CT1002167954
#       Creating user name   hitesit
#       Creation time:       Sun Apr 16 22:50:32 2023


#       File generated by GOLD software.
#

@<TRIPOS>MOLECULE
CT1002167954|ligand_prepared|mol2|1|dock9
    29    30     1
SMALL
NO_CHARGES


@<TRIPOS>ATOM
      1 C1          19.6010  -9.1445  -0.4537 C.3            1 RES1               0.0000
      2 C2          20.8680  -9.8861   0.0190 C.ar           1 RES1               0.0000
      3 C3          20.0282  -7.7088  -0.7444 C.2            1 RES1               0.0000
      4 C4          19.0940  -9.9023  -1.6757 C.2            1 RES1               0.0000
      5 C5          18.4655  -9.1161   0.5959 C.3            1 RES1               0.0000
      6 C6          21.2939  -9.7899   1.3404 C.ar           1 RES1               0.0000
      7 C7          21.6185 -10.6708  -0.8526 C.ar           1 RES1               0.0000
      8 N8          20.1261  -7.3310  -2.0512 N.am           1 RES1               0.0000
      9 O9          20.3131  -6.9316   0.1584 O.2            1 RES1               0.0000
     10 N10         19.1204  -9.2601  -2.8860 N.am           1 RES1               0.0000
     11 O11         18.6875 -11.0555  -1.6043 O.2            1 RES1               0.0000
     12 C12         17.1289  -8.6502   0.0406 C.3            1 RES1               0.0000
     13 C13         22.4273 -10.4565   1.7756 C.ar           1 RES1               0.0000
     14 C14         22.7518 -11.3364  -0.4153 C.ar           1 RES1               0.0000
     15 C15         19.6420  -8.0198  -3.1342 C.2            1 RES1               0.0000
     16 C16         23.1567 -11.2304   0.8983 C.ar           1 RES1               0.0000
     17 O17         19.6791  -7.5315  -4.2600 O.2            1 RES1               0.0000
     18 H18         18.3434 -10.1240   1.0112 H              1 RES1               0.0000
     19 H19         18.7591  -8.4490   1.4157 H              1 RES1               0.0000
     20 H20         20.7341  -9.1836   2.0446 H              1 RES1               0.0000
     21 H21         21.3195 -10.7678  -1.8907 H              1 RES1               0.0000
     22 H22         20.6034  -6.4555  -2.2406 H              1 RES1               0.0000
     23 H23         18.7133  -9.7523  -3.6749 H              1 RES1               0.0000
     24 H24         16.3676  -8.6489   0.8179 H              1 RES1               0.0000
     25 H25         17.2075  -7.6409  -0.3583 H              1 RES1               0.0000
     26 H26         16.7942  -9.3061  -0.7604 H              1 RES1               0.0000
     27 H27         22.7426 -10.3688   2.8101 H              1 RES1               0.0000
     28 H28         23.3232 -11.9439  -1.1094 H              1 RES1               0.0000
     29 H29         24.0443 -11.7528   1.2395 H              1 RES1               0.0000
@<TRIPOS>BOND
    1    1    2 1     
    2    1    3 1     
    3    1    4 1     
    4    1    5 1     
    5    2    6 ar    
    6    2    7 ar    
    7    3    8 1     
    8    3    9 2     
    9    4   10 1     
   10    4   11 2     
   11    5   12 1     
   12    5   18 1     
   13    5   19 1     
   14    6   13 ar    
   15    6   20 1     
   16    7   14 ar    
   17    7   21 1     
   18    8   15 1     
   19    8   22 1     
   20   10   15 1     
   21   10   23 1     
   22   12   24 1     
   23   12   25 1     
   24   12   26 1     
   25   13   16 ar    
   26   13   27 1     
   27   14   16 ar    
   28   14   28 1     
   29   15   17 2     
   30   16   29 1     
@<TRIPOS>SUBSTRUCTURE
      1 RES1           1
@<TRIPOS>SET
DONOR_HYDROGENS      STATIC     ATOMS    <user>   **** ""
2 22 23
ATOM$RED        STATIC     ATOMS    COLORGROUP SYSTEM
2 22 23
@<TRIPOS>COMMENT
> <Gold.Version>
2022.3.0

> <Gold.Id.Protein>
unknown|3owp_clean|pdb

> <Gold.Protein.RotatedTorsions>
[ 3671 3662 3661 3659 ] final  -60.63 input   60.00 | X-H torsion
[ 3591 3582 3581 3579 ] final -168.63 input   60.01 | X-H torsion
[ 3859 3850 3849 3847 ] final  -86.15 input   60.02 | X-H torsion
[ 3132 3125 3123 3120 ] final -162.73 input   60.00 | X-H torsion
[ 5167 5158 5157 5155 ] final    5.55 input   60.02 | X-H torsion
[ 2604 2593 2592 2591 ] final  -65.73 input   59.97 | X-H torsion
[  605  600  598  595 ] final  111.15 input   60.04 | X-H torsion
[ 1932 1928 1927 1924 ] final -107.23 input   59.99 | X-H torsion
[ 3182 3173 3172 3170 ] final  -99.97 input   60.01 | X-H torsion
[  625  620  619  616 ] final  100.74 input   60.02 | X-H torsion

> <Gold.Protein.ActiveResidues>
 LEU49   GLY50   THR51   GLY52   SER53   PHE54   GLY55   VAL79   LEU82   LYS83  
 GLN84   HIS87   THR88   GLY126  GLU127  MET128  PHE129  SER130  HIS131  LEU132 
 ARG133  ARG134  ILE135  GLY136  ARG137  ARG165  ASP166  LEU167  LYS168  PRO169 
 GLU170  ASN171  LEU172  LEU173  ASP184  GLY186  PHE187  TPO197  LEU198  CYS199 
 GLY200  THR201  PRO202  GLU203  TYR204  LEU205  ILE209  ILE210  VAL226  LEU227 
 TYR229  GLU230  ALA233  GLY234  TYR235  PRO236  PRO237  PHE238  PHE239  ALA240 
 ASP241  GLN242  PRO243  ILE244  GLN245  ILE246  TYR247  LYS249  ARG256  PHE257 
 PRO258  SER259  ASN326  PHE327  ASP328  ASP329  TYR330 

> <Gold.Protein.RotatedAtoms>
   19.0041  -13.7555    5.8491 H   0  0  0  0  0  0  0  0  0  0  0  0  # atno 605  bound_to 600 
   16.7303  -12.5363   -2.7946 H   0  0  0  0  0  0  0  0  0  0  0  0  # atno 625  bound_to 620 
   25.9267   -5.5256   12.7759 H   0  0  0  0  0  0  0  0  0  0  0  0  # atno 1932 bound_to 1928
   18.9837   -4.1575    1.7276 H   0  0  0  0  0  0  0  0  0  0  0  0  # atno 2604 bound_to 2593
   18.8859   -3.5641    0.1835 H   0  0  0  0  0  0  0  0  0  0  0  0  # atno 2605 bound_to 2593
   19.5906   -5.0380    0.4620 H   0  0  0  0  0  0  0  0  0  0  0  0  # atno 2606 bound_to 2593
   18.4704   -2.4504    0.1864 H   0  0  0  0  0  0  0  0  0  0  0  0  # atno 3132 bound_to 3125
   21.0591    5.4064    3.9380 H   0  0  0  0  0  0  0  0  0  0  0  0  # atno 3182 bound_to 3173
   15.9686   14.7246    7.1872 H   0  0  0  0  0  0  0  0  0  0  0  0  # atno 3591 bound_to 3582
   16.8815   14.0761   11.3969 H   0  0  0  0  0  0  0  0  0  0  0  0  # atno 3671 bound_to 3662
    9.7688   -0.7177   -3.6549 H   0  0  0  0  0  0  0  0  0  0  0  0  # atno 3859 bound_to 3850
   23.8805  -10.1996    9.5063 H   0  0  0  0  0  0  0  0  0  0  0  0  # atno 5167 bound_to 5158
   16.6219   13.7518   12.9706 LP  0  0  0  0  0  0  0  0  0  0  0  0  # atno 5485 bound_to 3662
   15.3604   13.8788   11.9414 LP  0  0  0  0  0  0  0  0  0  0  0  0  # atno 5486 bound_to 3662
   16.6388   14.1086    8.5361 LP  0  0  0  0  0  0  0  0  0  0  0  0  # atno 5493 bound_to 3582
   15.5879   13.2153    7.6618 LP  0  0  0  0  0  0  0  0  0  0  0  0  # atno 5494 bound_to 3582
    8.7496   -1.1215   -2.4522 LP  0  0  0  0  0  0  0  0  0  0  0  0  # atno 5549 bound_to 3850
   10.2011   -0.4574   -2.1077 LP  0  0  0  0  0  0  0  0  0  0  0  0  # atno 5550 bound_to 3850
   18.5452   -2.0262   -1.3828 LP  0  0  0  0  0  0  0  0  0  0  0  0  # atno 5553 bound_to 3125
   17.3481   -3.0029   -0.8542 LP  0  0  0  0  0  0  0  0  0  0  0  0  # atno 5554 bound_to 3125
   22.3256  -10.0639    9.9657 LP  0  0  0  0  0  0  0  0  0  0  0  0  # atno 5563 bound_to 5158
   22.6931  -10.4843    8.4311 LP  0  0  0  0  0  0  0  0  0  0  0  0  # atno 5564 bound_to 5158
   20.3483  -12.8742    6.1030 LP  0  0  0  0  0  0  0  0  0  0  0  0  # atno 5571 bound_to 600 
   19.9148  -14.0330    7.1688 LP  0  0  0  0  0  0  0  0  0  0  0  0  # atno 5572 bound_to 600 
   26.9448   -5.3650   11.5171 LP  0  0  0  0  0  0  0  0  0  0  0  0  # atno 5573 bound_to 1928
   25.5035   -4.5975   11.5084 LP  0  0  0  0  0  0  0  0  0  0  0  0  # atno 5574 bound_to 1928
   22.2775    4.4165    3.5086 LP  0  0  0  0  0  0  0  0  0  0  0  0  # atno 5603 bound_to 3173
   21.0100    3.8349    4.3583 LP  0  0  0  0  0  0  0  0  0  0  0  0  # atno 5604 bound_to 3173
   17.4282  -12.0937   -1.3928 LP  0  0  0  0  0  0  0  0  0  0  0  0  # atno 5611 bound_to 620 
   16.1246  -11.2838   -1.9506 LP  0  0  0  0  0  0  0  0  0  0  0  0  # atno 5612 bound_to 620 

> <Gold.Score>
     Fitness  S(hb_ext) S(vdw_ext)  S(hb_int)    S(int)      intcor
     30.94       9.08      16.51       0.00      -0.85      -0.76

> <Gold.Goldscore.Fitness>
30.9422

> <Gold.Goldscore.Internal.Vdw>
-1.0155

> <Gold.Goldscore.Internal.Torsion>
-0.5898

> <Gold.Goldscore.External.Vdw>
16.5135

> <Gold.Goldscore.Internal.HBond>
0.0000

> <Gold.Goldscore.External.HBond>
9.0829

> <Gold.Goldscore.Internal.Correction>
-0.7585

> <Gold.Goldscore.Hbonds>
donor molecule, donor type, donor heavy atom, donor atom, acceptor molecule, acceptor atom, score
      P1  H  2593  2606       L1     9  1.00
      P1  H   615   624       L1    11  0.10
      L1  H     8    22       P1  2561  0.48

> <Gold.Goldscore.Internal.Vdw.Weighted>
-1.0155

> <Gold.Goldscore.Internal.Torsion.Weighted>
-0.5898

> <Gold.Goldscore.External.Vdw.Weighted>
22.7060

> <Gold.Goldscore.Internal.HBond.Weighted>
0.0000

> <Gold.Goldscore.External.HBond.Weighted>
9.0829

> <Gold.Goldscore.Internal.Correction.Weighted>
-0.7585

> <Gold.Rescore>
     Score     S(PLP)   S(hbond)     S(cho)   S(metal)  DE(clash)   DE(tors)     intcor
     27.09     -23.07       1.87       0.00       0.00       1.16       0.22       ----

> <Gold.PLP.Fitness>
27.0860

> <Gold.PLP.PLP>
-23.0665

> <Gold.PLP.part.hbond>
-3.5981

> <Gold.PLP.part.metal>
0.0000

> <Gold.PLP.part.buried>
-6.1361

> <Gold.PLP.part.nonpolar>
-14.6888

> <Gold.PLP.part.repulsive>
0.3129

> <Gold.PLP.ligand.clash>
1.1580

> <Gold.PLP.ligand.torsion>
0.2178

> <Gold.PLP.Chemscore.Hbond>
1.8710

> <Gold.PLP.Chemscore.CHOScore>
0.0000

> <Gold.PLP.Chemscore.Metal>
0.0000

> <Gold.Chemscore.Hbonds>
donor molecule, donor type, donor heavy atom, donor atom, acceptor molecule, acceptor atom, score
      L1  H     8    22       P1  2561  0.34
      P1  H  2593  2606       L1     9  1.00
      P1  H   615   624       L1    11  1.00

> <Gold.PLP.Chemscore.Internal.Correction>
   9.000000E+99

