#       Name:                CT1002167954
#       Creating user name   hitesit
#       Creation time:       Sun Apr 16 22:50:27 2023


#       File generated by GOLD software.
#

@<TRIPOS>MOLECULE
CT1002167954|ligand_prepared|mol2|1|dock5
    29    30     1
SMALL
NO_CHARGES


@<TRIPOS>ATOM
      1 C1          23.7876  -9.9122   1.7791 C.3            1 RES1               0.0000
      2 C2          23.4746 -11.1748   0.9504 C.ar           1 RES1               0.0000
      3 C3          22.4406  -9.3107   2.1688 C.2            1 RES1               0.0000
      4 C4          24.6276 -10.3769   2.9637 C.2            1 RES1               0.0000
      5 C5          24.5981  -8.8441   1.0085 C.3            1 RES1               0.0000
      6 C6          23.2754 -11.0887  -0.4243 C.ar           1 RES1               0.0000
      7 C7          23.3847 -12.4306   1.5449 C.ar           1 RES1               0.0000
      8 N8          22.0382  -9.4486   3.4645 N.am           1 RES1               0.0000
      9 O9          21.7244  -8.7584   1.3427 O.2            1 RES1               0.0000
     10 N10         24.0875 -10.2624   4.2179 N.am           1 RES1               0.0000
     11 O11         25.7455 -10.8564   2.8209 O.2            1 RES1               0.0000
     12 C12         25.2374  -7.7951   1.9045 C.3            1 RES1               0.0000
     13 C13         22.9993 -12.2176  -1.1778 C.ar           1 RES1               0.0000
     14 C14         23.1082 -13.5582   0.7895 C.ar           1 RES1               0.0000
     15 C15         22.8189  -9.8479   4.5194 C.2            1 RES1               0.0000
     16 C16         22.9159 -13.4530  -0.5716 C.ar           1 RES1               0.0000
     17 O17         22.3869  -9.8238   5.6683 O.2            1 RES1               0.0000
     18 H18         25.3865  -9.3456   0.4339 H              1 RES1               0.0000
     19 H19         23.9321  -8.3415   0.2962 H              1 RES1               0.0000
     20 H20         23.3347 -10.1247  -0.9184 H              1 RES1               0.0000
     21 H21         23.5312 -12.5371   2.6144 H              1 RES1               0.0000
     22 H22         21.0669  -9.2352   3.6680 H              1 RES1               0.0000
     23 H23         24.6868 -10.5090   4.9991 H              1 RES1               0.0000
     24 H24         25.7937  -7.0704   1.3137 H              1 RES1               0.0000
     25 H25         24.4797  -7.2592   2.4724 H              1 RES1               0.0000
     26 H26         25.9254  -8.2574   2.6093 H              1 RES1               0.0000
     27 H27         22.8474 -12.1292  -2.2485 H              1 RES1               0.0000
     28 H28         23.0429 -14.5283   1.2709 H              1 RES1               0.0000
     29 H29         22.6999 -14.3372  -1.1622 H              1 RES1               0.0000
@<TRIPOS>BOND
    1    1    2 1     
    2    1    3 1     
    3    1    4 1     
    4    1    5 1     
    5    2    6 ar    
    6    2    7 ar    
    7    3    8 1     
    8    3    9 2     
    9    4   10 1     
   10    4   11 2     
   11    5   12 1     
   12    5   18 1     
   13    5   19 1     
   14    6   13 ar    
   15    6   20 1     
   16    7   14 ar    
   17    7   21 1     
   18    8   15 1     
   19    8   22 1     
   20   10   15 1     
   21   10   23 1     
   22   12   24 1     
   23   12   25 1     
   24   12   26 1     
   25   13   16 ar    
   26   13   27 1     
   27   14   16 ar    
   28   14   28 1     
   29   15   17 2     
   30   16   29 1     
@<TRIPOS>SUBSTRUCTURE
      1 RES1           1
@<TRIPOS>SET
DONOR_HYDROGENS      STATIC     ATOMS    <user>   **** ""
2 22 23
ATOM$RED        STATIC     ATOMS    COLORGROUP SYSTEM
2 22 23
@<TRIPOS>COMMENT
> <Gold.Version>
2022.3.0

> <Gold.Id.Protein>
unknown|3owp_clean|pdb

> <Gold.Protein.RotatedTorsions>
[ 3671 3662 3661 3659 ] final   29.61 input   60.00 | X-H torsion
[ 3591 3582 3581 3579 ] final -147.26 input   60.01 | X-H torsion
[ 3859 3850 3849 3847 ] final  -39.59 input   60.02 | X-H torsion
[ 3132 3125 3123 3120 ] final  -71.63 input   60.00 | X-H torsion
[ 5167 5158 5157 5155 ] final  115.36 input   60.02 | X-H torsion
[ 2604 2593 2592 2591 ] final   -8.94 input   59.97 | X-H torsion
[  605  600  598  595 ] final    6.87 input   60.04 | X-H torsion
[ 1932 1928 1927 1924 ] final  -98.24 input   59.99 | X-H torsion
[ 3182 3173 3172 3170 ] final  163.10 input   60.01 | X-H torsion
[  625  620  619  616 ] final   -9.31 input   60.02 | X-H torsion

> <Gold.Protein.ActiveResidues>
 LEU49   GLY50   THR51   GLY52   SER53   PHE54   GLY55   VAL79   LEU82   LYS83  
 GLN84   HIS87   THR88   GLY126  GLU127  MET128  PHE129  SER130  HIS131  LEU132 
 ARG133  ARG134  ILE135  GLY136  ARG137  ARG165  ASP166  LEU167  LYS168  PRO169 
 GLU170  ASN171  LEU172  LEU173  ASP184  GLY186  PHE187  TPO197  LEU198  CYS199 
 GLY200  THR201  PRO202  GLU203  TYR204  LEU205  ILE209  ILE210  VAL226  LEU227 
 TYR229  GLU230  ALA233  GLY234  TYR235  PRO236  PRO237  PHE238  PHE239  ALA240 
 ASP241  GLN242  PRO243  ILE244  GLN245  ILE246  TYR247  LYS249  ARG256  PHE257 
 PRO258  SER259  ASN326  PHE327  ASP328  ASP329  TYR330 

> <Gold.Protein.RotatedAtoms>
   20.1807  -12.8626    5.9084 H   0  0  0  0  0  0  0  0  0  0  0  0  # atno 605  bound_to 600 
   17.4722  -12.2169   -1.4902 H   0  0  0  0  0  0  0  0  0  0  0  0  # atno 625  bound_to 620 
   25.8000   -5.4524   12.7648 H   0  0  0  0  0  0  0  0  0  0  0  0  # atno 1932 bound_to 1928
   18.7201   -3.4889    1.1697 H   0  0  0  0  0  0  0  0  0  0  0  0  # atno 2604 bound_to 2593
   19.3000   -4.3010   -0.1532 H   0  0  0  0  0  0  0  0  0  0  0  0  # atno 2605 bound_to 2593
   19.4400   -4.9694    1.3568 H   0  0  0  0  0  0  0  0  0  0  0  0  # atno 2606 bound_to 2593
   17.4281   -3.0522   -0.3948 H   0  0  0  0  0  0  0  0  0  0  0  0  # atno 3132 bound_to 3125
   22.2156    4.7825    3.4491 H   0  0  0  0  0  0  0  0  0  0  0  0  # atno 3182 bound_to 3173
   15.7557   14.4893    7.0461 H   0  0  0  0  0  0  0  0  0  0  0  0  # atno 3591 bound_to 3582
   15.5633   13.9728   11.5137 H   0  0  0  0  0  0  0  0  0  0  0  0  # atno 3671 bound_to 3662
   10.3119   -0.4558   -3.2258 H   0  0  0  0  0  0  0  0  0  0  0  0  # atno 3859 bound_to 3850
   22.8577  -10.4944    8.4052 H   0  0  0  0  0  0  0  0  0  0  0  0  # atno 5167 bound_to 5158
   17.1681   14.0204   11.7812 LP  0  0  0  0  0  0  0  0  0  0  0  0  # atno 5485 bound_to 3662
   16.1409   13.7141   13.0132 LP  0  0  0  0  0  0  0  0  0  0  0  0  # atno 5486 bound_to 3662
   16.6787   14.4212    8.3847 LP  0  0  0  0  0  0  0  0  0  0  0  0  # atno 5493 bound_to 3582
   15.7622   13.1396    7.9553 LP  0  0  0  0  0  0  0  0  0  0  0  0  # atno 5494 bound_to 3582
    8.8267   -1.1202   -3.1934 LP  0  0  0  0  0  0  0  0  0  0  0  0  # atno 5549 bound_to 3850
    9.5769   -0.7225   -1.7986 LP  0  0  0  0  0  0  0  0  0  0  0  0  # atno 5550 bound_to 3850
   18.7646   -2.1849   -0.0643 LP  0  0  0  0  0  0  0  0  0  0  0  0  # atno 5553 bound_to 3125
   18.1782   -2.2381   -1.5874 LP  0  0  0  0  0  0  0  0  0  0  0  0  # atno 5554 bound_to 3125
   23.8353  -10.1551    9.6607 LP  0  0  0  0  0  0  0  0  0  0  0  0  # atno 5563 bound_to 5158
   22.2139  -10.0961    9.8454 LP  0  0  0  0  0  0  0  0  0  0  0  0  # atno 5564 bound_to 5158
   20.1200  -13.8772    7.1791 LP  0  0  0  0  0  0  0  0  0  0  0  0  # atno 5571 bound_to 600 
   18.9581  -13.9291    6.0329 LP  0  0  0  0  0  0  0  0  0  0  0  0  # atno 5572 bound_to 600 
   26.9727   -5.4467   11.6372 LP  0  0  0  0  0  0  0  0  0  0  0  0  # atno 5573 bound_to 1928
   25.6033   -4.5896   11.3996 LP  0  0  0  0  0  0  0  0  0  0  0  0  # atno 5574 bound_to 1928
   21.3212    3.6670    4.2268 LP  0  0  0  0  0  0  0  0  0  0  0  0  # atno 5603 bound_to 3173
   20.8023    5.2124    4.1322 LP  0  0  0  0  0  0  0  0  0  0  0  0  # atno 5604 bound_to 3173
   16.2036  -11.2498   -1.8116 LP  0  0  0  0  0  0  0  0  0  0  0  0  # atno 5611 bound_to 620 
   16.6021  -12.4494   -2.8454 LP  0  0  0  0  0  0  0  0  0  0  0  0  # atno 5612 bound_to 620 

> <Gold.Score>
     Fitness  S(hb_ext) S(vdw_ext)  S(hb_int)    S(int)      intcor
     32.89       1.00      23.79       0.00      -0.83      -0.76

> <Gold.Goldscore.Fitness>
32.8860

> <Gold.Goldscore.Internal.Vdw>
-0.8266

> <Gold.Goldscore.Internal.Torsion>
-0.7596

> <Gold.Goldscore.External.Vdw>
23.7929

> <Gold.Goldscore.Internal.HBond>
0.0000

> <Gold.Goldscore.External.HBond>
0.9985

> <Gold.Goldscore.Internal.Correction>
-0.7585

> <Gold.Goldscore.Hbonds>
donor molecule, donor type, donor heavy atom, donor atom, acceptor molecule, acceptor atom, score
      P1  H  5158  5167       L1    17  0.44
      P1  H   594   601       L1    17  0.06

> <Gold.Goldscore.Internal.Vdw.Weighted>
-0.8266

> <Gold.Goldscore.Internal.Torsion.Weighted>
-0.7596

> <Gold.Goldscore.External.Vdw.Weighted>
32.7152

> <Gold.Goldscore.Internal.HBond.Weighted>
0.0000

> <Gold.Goldscore.External.HBond.Weighted>
0.9985

> <Gold.Goldscore.Internal.Correction.Weighted>
-0.7585

> <Gold.Rescore>
     Score     S(PLP)   S(hbond)     S(cho)   S(metal)  DE(clash)   DE(tors)     intcor
     33.71     -35.89       0.00       0.00       0.00       1.24       0.47       ----

> <Gold.PLP.Fitness>
33.7122

> <Gold.PLP.PLP>
-35.8886

> <Gold.PLP.part.hbond>
-0.9447

> <Gold.PLP.part.metal>
0.0000

> <Gold.PLP.part.buried>
-4.9445

> <Gold.PLP.part.nonpolar>
-30.6890

> <Gold.PLP.part.repulsive>
0.4336

> <Gold.PLP.ligand.clash>
1.2357

> <Gold.PLP.ligand.torsion>
0.4703

> <Gold.PLP.Chemscore.Hbond>
0.0000

> <Gold.PLP.Chemscore.CHOScore>
0.0000

> <Gold.PLP.Chemscore.Metal>
0.0000

> <Gold.PLP.Chemscore.Internal.Correction>
   9.000000E+99

