#       Name:                CT1002167954
#       Creating user name   hitesit
#       Creation time:       Sun Apr 16 22:50:26 2023


#       File generated by GOLD software.
#

@<TRIPOS>MOLECULE
CT1002167954|ligand_prepared|mol2|1|dock4
    29    30     1
SMALL
NO_CHARGES


@<TRIPOS>ATOM
      1 C1          23.7010  -9.2521   2.1905 C.3            1 RES1               0.0000
      2 C2          23.6481 -10.7380   1.7806 C.ar           1 RES1               0.0000
      3 C3          23.9771  -8.4648   0.9130 C.2            1 RES1               0.0000
      4 C4          22.3553  -8.9394   2.8355 C.2            1 RES1               0.0000
      5 C5          24.8103  -8.9264   3.2176 C.3            1 RES1               0.0000
      6 C6          23.7804 -11.7417   2.7355 C.ar           1 RES1               0.0000
      7 C7          23.4652 -11.1200   0.4542 C.ar           1 RES1               0.0000
      8 N8          22.9445  -7.7578   0.3709 N.am           1 RES1               0.0000
      9 O9          25.0735  -8.4956   0.3677 O.2            1 RES1               0.0000
     10 N10         21.5289  -8.0512   2.1983 N.am           1 RES1               0.0000
     11 O11         21.9962  -9.4666   3.8811 O.2            1 RES1               0.0000
     12 C12         24.9977  -7.4381   3.4664 C.3            1 RES1               0.0000
     13 C13         23.7288 -13.0788   2.3779 C.ar           1 RES1               0.0000
     14 C14         23.4142 -12.4577   0.0987 C.ar           1 RES1               0.0000
     15 C15         21.7495  -7.4697   0.9796 C.2            1 RES1               0.0000
     16 C16         23.5453 -13.4377   1.0596 C.ar           1 RES1               0.0000
     17 O17         20.9338  -6.7233   0.4460 O.2            1 RES1               0.0000
     18 H18         24.5655  -9.4153   4.1687 H              1 RES1               0.0000
     19 H19         25.7580  -9.3465   2.8589 H              1 RES1               0.0000
     20 H20         23.9280 -11.4784   3.7776 H              1 RES1               0.0000
     21 H21         23.3608 -10.3662  -0.3188 H              1 RES1               0.0000
     22 H22         23.0728  -7.4113  -0.5745 H              1 RES1               0.0000
     23 H23         20.6696  -7.8003   2.6770 H              1 RES1               0.0000
     24 H24         25.7874  -7.2652   4.1945 H              1 RES1               0.0000
     25 H25         25.2669  -6.9240   2.5460 H              1 RES1               0.0000
     26 H26         24.0814  -6.9924   3.8480 H              1 RES1               0.0000
     27 H27         23.8339 -13.8462   3.1377 H              1 RES1               0.0000
     28 H28         23.2702 -12.7356  -0.9401 H              1 RES1               0.0000
     29 H29         23.5045 -14.4852   0.7798 H              1 RES1               0.0000
@<TRIPOS>BOND
    1    1    2 1     
    2    1    3 1     
    3    1    4 1     
    4    1    5 1     
    5    2    6 ar    
    6    2    7 ar    
    7    3    8 1     
    8    3    9 2     
    9    4   10 1     
   10    4   11 2     
   11    5   12 1     
   12    5   18 1     
   13    5   19 1     
   14    6   13 ar    
   15    6   20 1     
   16    7   14 ar    
   17    7   21 1     
   18    8   15 1     
   19    8   22 1     
   20   10   15 1     
   21   10   23 1     
   22   12   24 1     
   23   12   25 1     
   24   12   26 1     
   25   13   16 ar    
   26   13   27 1     
   27   14   16 ar    
   28   14   28 1     
   29   15   17 2     
   30   16   29 1     
@<TRIPOS>SUBSTRUCTURE
      1 RES1           1
@<TRIPOS>SET
DONOR_HYDROGENS      STATIC     ATOMS    <user>   **** ""
2 22 23
ATOM$RED        STATIC     ATOMS    COLORGROUP SYSTEM
2 22 23
@<TRIPOS>COMMENT
> <Gold.Version>
2022.3.0

> <Gold.Id.Protein>
unknown|3owp_clean|pdb

> <Gold.Protein.RotatedTorsions>
[ 3671 3662 3661 3659 ] final  -21.62 input   60.00 | X-H torsion
[ 3591 3582 3581 3579 ] final   27.96 input   60.01 | X-H torsion
[ 3859 3850 3849 3847 ] final  -60.08 input   60.02 | X-H torsion
[ 3132 3125 3123 3120 ] final  -66.90 input   60.00 | X-H torsion
[ 5167 5158 5157 5155 ] final -133.29 input   60.02 | X-H torsion
[ 2604 2593 2592 2591 ] final -164.77 input   59.97 | X-H torsion
[  605  600  598  595 ] final  122.38 input   60.04 | X-H torsion
[ 1932 1928 1927 1924 ] final  171.80 input   59.99 | X-H torsion
[ 3182 3173 3172 3170 ] final  -61.38 input   60.01 | X-H torsion
[  625  620  619  616 ] final   17.64 input   60.02 | X-H torsion

> <Gold.Protein.ActiveResidues>
 LEU49   GLY50   THR51   GLY52   SER53   PHE54   GLY55   VAL79   LEU82   LYS83  
 GLN84   HIS87   THR88   GLY126  GLU127  MET128  PHE129  SER130  HIS131  LEU132 
 ARG133  ARG134  ILE135  GLY136  ARG137  ARG165  ASP166  LEU167  LYS168  PRO169 
 GLU170  ASN171  LEU172  LEU173  ASP184  GLY186  PHE187  TPO197  LEU198  CYS199 
 GLY200  THR201  PRO202  GLU203  TYR204  LEU205  ILE209  ILE210  VAL226  LEU227 
 TYR229  GLU230  ALA233  GLY234  TYR235  PRO236  PRO237  PHE238  PHE239  ALA240 
 ASP241  GLN242  PRO243  ILE244  GLN245  ILE246  TYR247  LYS249  ARG256  PHE257 
 PRO258  SER259  ASN326  PHE327  ASP328  ASP329  TYR330 

> <Gold.Protein.RotatedAtoms>
   18.9701  -13.8810    5.9781 H   0  0  0  0  0  0  0  0  0  0  0  0  # atno 605  bound_to 600 
   17.4983  -12.5022   -1.8193 H   0  0  0  0  0  0  0  0  0  0  0  0  # atno 625  bound_to 620 
   26.9097   -5.6538   12.0732 H   0  0  0  0  0  0  0  0  0  0  0  0  # atno 1932 bound_to 1928
   19.5818   -5.1084    0.8023 H   0  0  0  0  0  0  0  0  0  0  0  0  # atno 2604 bound_to 2593
   18.8494   -3.8594    1.6082 H   0  0  0  0  0  0  0  0  0  0  0  0  # atno 2605 bound_to 2593
   19.0291   -3.7917   -0.0379 H   0  0  0  0  0  0  0  0  0  0  0  0  # atno 2606 bound_to 2593
   17.4028   -3.0528   -0.4678 H   0  0  0  0  0  0  0  0  0  0  0  0  # atno 3132 bound_to 3125
   20.6904    5.0122    4.2410 H   0  0  0  0  0  0  0  0  0  0  0  0  # atno 3182 bound_to 3173
   16.3319   13.4853    8.5160 H   0  0  0  0  0  0  0  0  0  0  0  0  # atno 3591 bound_to 3582
   16.2939   14.0828   11.1823 H   0  0  0  0  0  0  0  0  0  0  0  0  # atno 3671 bound_to 3662
   10.1146   -0.5551   -3.4751 H   0  0  0  0  0  0  0  0  0  0  0  0  # atno 3859 bound_to 3850
   22.1436  -10.1303    9.7268 H   0  0  0  0  0  0  0  0  0  0  0  0  # atno 5167 bound_to 5158
   17.1019   13.8588   12.5773 LP  0  0  0  0  0  0  0  0  0  0  0  0  # atno 5485 bound_to 3662
   15.4718   13.7650   12.5506 LP  0  0  0  0  0  0  0  0  0  0  0  0  # atno 5486 bound_to 3662
   15.4512   13.6817    7.1618 LP  0  0  0  0  0  0  0  0  0  0  0  0  # atno 5493 bound_to 3582
   16.4097   14.8900    7.6982 LP  0  0  0  0  0  0  0  0  0  0  0  0  # atno 5494 bound_to 3582
    8.7242   -1.1518   -2.8757 LP  0  0  0  0  0  0  0  0  0  0  0  0  # atno 5549 bound_to 3850
    9.8781   -0.5909   -1.8653 LP  0  0  0  0  0  0  0  0  0  0  0  0  # atno 5550 bound_to 3850
   18.7265   -2.2250   -0.0095 LP  0  0  0  0  0  0  0  0  0  0  0  0  # atno 5553 bound_to 3125
   18.2419   -2.1974   -1.5686 LP  0  0  0  0  0  0  0  0  0  0  0  0  # atno 5554 bound_to 3125
   22.9991  -10.4965    8.3922 LP  0  0  0  0  0  0  0  0  0  0  0  0  # atno 5563 bound_to 5158
   23.7696  -10.1216    9.7823 LP  0  0  0  0  0  0  0  0  0  0  0  0  # atno 5564 bound_to 5158
   20.2338  -12.8560    5.9595 LP  0  0  0  0  0  0  0  0  0  0  0  0  # atno 5571 bound_to 600 
   20.0636  -13.9247    7.1824 LP  0  0  0  0  0  0  0  0  0  0  0  0  # atno 5572 bound_to 600 
   26.0130   -4.6639   11.1442 LP  0  0  0  0  0  0  0  0  0  0  0  0  # atno 5573 bound_to 1928
   25.4448   -5.1694   12.5893 LP  0  0  0  0  0  0  0  0  0  0  0  0  # atno 5574 bound_to 1928
   22.1136    5.0149    3.4514 LP  0  0  0  0  0  0  0  0  0  0  0  0  # atno 5603 bound_to 3173
   21.5451    3.6333    4.1105 LP  0  0  0  0  0  0  0  0  0  0  0  0  # atno 5604 bound_to 3173
   16.4937  -11.2674   -1.4819 LP  0  0  0  0  0  0  0  0  0  0  0  0  # atno 5611 bound_to 620 
   16.2857  -12.1444   -2.8437 LP  0  0  0  0  0  0  0  0  0  0  0  0  # atno 5612 bound_to 620 

> <Gold.Score>
     Fitness  S(hb_ext) S(vdw_ext)  S(hb_int)    S(int)      intcor
     33.78       2.61      23.48       0.00      -1.12      -0.77

> <Gold.Goldscore.Fitness>
33.7772

> <Gold.Goldscore.Internal.Vdw>
-1.3975

> <Gold.Goldscore.Internal.Torsion>
-0.4878

> <Gold.Goldscore.External.Vdw>
23.4831

> <Gold.Goldscore.Internal.HBond>
0.0000

> <Gold.Goldscore.External.HBond>
2.6080

> <Gold.Goldscore.Internal.Correction>
-0.7653

> <Gold.Goldscore.Hbonds>
donor molecule, donor type, donor heavy atom, donor atom, acceptor molecule, acceptor atom, score
      P1  H  2593  2604       L1    17  0.14
      L1  H     8    22       P1  2846  0.29

> <Gold.Goldscore.Internal.Vdw.Weighted>
-1.3975

> <Gold.Goldscore.Internal.Torsion.Weighted>
-0.4878

> <Gold.Goldscore.External.Vdw.Weighted>
32.2893

> <Gold.Goldscore.Internal.HBond.Weighted>
0.0000

> <Gold.Goldscore.External.HBond.Weighted>
2.6080

> <Gold.Goldscore.Internal.Correction.Weighted>
-0.7653

> <Gold.Rescore>
     Score     S(PLP)   S(hbond)     S(cho)   S(metal)  DE(clash)   DE(tors)     intcor
     31.63     -31.94       0.44       0.00       0.00       0.76       0.43       ----

> <Gold.PLP.Fitness>
31.6305

> <Gold.PLP.PLP>
-31.9383

> <Gold.PLP.part.hbond>
-2.0000

> <Gold.PLP.part.metal>
0.0000

> <Gold.PLP.part.buried>
-5.3046

> <Gold.PLP.part.nonpolar>
-27.8490

> <Gold.PLP.part.repulsive>
2.8366

> <Gold.PLP.ligand.clash>
0.7648

> <Gold.PLP.ligand.torsion>
0.4265

> <Gold.PLP.Chemscore.Hbond>
0.4367

> <Gold.PLP.Chemscore.CHOScore>
0.0000

> <Gold.PLP.Chemscore.Metal>
0.0000

> <Gold.Chemscore.Hbonds>
donor molecule, donor type, donor heavy atom, donor atom, acceptor molecule, acceptor atom, score
      L1  H     8    22       P1  2846  0.67
      P1  H  2593  2604       L1    17  0.84

> <Gold.PLP.Chemscore.Internal.Correction>
   9.000000E+99

