#       Name:                CT1002167954
#       Creating user name   hitesit
#       Creation time:       Sun Apr 16 22:50:31 2023


#       File generated by GOLD software.
#

@<TRIPOS>MOLECULE
CT1002167954|ligand_prepared|mol2|1|dock8
    29    30     1
SMALL
NO_CHARGES


@<TRIPOS>ATOM
      1 C1          20.2575  -9.4921  -4.0894 C.3            1 RES1               0.0000
      2 C2          20.6090 -10.8170  -3.3825 C.ar           1 RES1               0.0000
      3 C3          20.2203  -9.8003  -5.5833 C.2            1 RES1               0.0000
      4 C4          18.9191  -9.0432  -3.5133 C.2            1 RES1               0.0000
      5 C5          21.2852  -8.3624  -3.8463 C.3            1 RES1               0.0000
      6 C6          21.9367 -11.1850  -3.1864 C.ar           1 RES1               0.0000
      7 C7          19.6183 -11.6788  -2.9194 C.ar           1 RES1               0.0000
      8 N8          18.9982  -9.8618  -6.1855 N.am           1 RES1               0.0000
      9 O9          21.2452 -10.0250  -6.2151 O.2            1 RES1               0.0000
     10 N10         17.8365  -9.0124  -4.3528 N.am           1 RES1               0.0000
     11 O11         18.7886  -8.7318  -2.3358 O.2            1 RES1               0.0000
     12 C12         20.7986  -6.9877  -4.2771 C.3            1 RES1               0.0000
     13 C13         22.2624 -12.3702  -2.5479 C.ar           1 RES1               0.0000
     14 C14         19.9462 -12.8636  -2.2812 C.ar           1 RES1               0.0000
     15 C15         17.8088  -9.4308  -5.6553 C.2            1 RES1               0.0000
     16 C16         21.2675 -13.2100  -2.0945 C.ar           1 RES1               0.0000
     17 O17         16.7833  -9.4235  -6.3302 O.2            1 RES1               0.0000
     18 H18         21.5298  -8.3315  -2.7774 H              1 RES1               0.0000
     19 H19         22.2058  -8.5987  -4.3942 H              1 RES1               0.0000
     20 H20         22.7332 -10.5380  -3.5386 H              1 RES1               0.0000
     21 H21         18.5720 -11.4273  -3.0562 H              1 RES1               0.0000
     22 H22         18.9656 -10.2658  -7.1162 H              1 RES1               0.0000
     23 H23         16.9712  -8.6433  -3.9716 H              1 RES1               0.0000
     24 H24         21.5575  -6.2322  -4.0847 H              1 RES1               0.0000
     25 H25         20.5701  -6.9752  -5.3407 H              1 RES1               0.0000
     26 H26         19.8980  -6.7096  -3.7336 H              1 RES1               0.0000
     27 H27         23.3038 -12.6388  -2.4046 H              1 RES1               0.0000
     28 H28         19.1599 -13.5218  -1.9266 H              1 RES1               0.0000
     29 H29         21.5229 -14.1381  -1.5940 H              1 RES1               0.0000
@<TRIPOS>BOND
    1    1    2 1     
    2    1    3 1     
    3    1    4 1     
    4    1    5 1     
    5    2    6 ar    
    6    2    7 ar    
    7    3    8 1     
    8    3    9 2     
    9    4   10 1     
   10    4   11 2     
   11    5   12 1     
   12    5   18 1     
   13    5   19 1     
   14    6   13 ar    
   15    6   20 1     
   16    7   14 ar    
   17    7   21 1     
   18    8   15 1     
   19    8   22 1     
   20   10   15 1     
   21   10   23 1     
   22   12   24 1     
   23   12   25 1     
   24   12   26 1     
   25   13   16 ar    
   26   13   27 1     
   27   14   16 ar    
   28   14   28 1     
   29   15   17 2     
   30   16   29 1     
@<TRIPOS>SUBSTRUCTURE
      1 RES1           1
@<TRIPOS>SET
DONOR_HYDROGENS      STATIC     ATOMS    <user>   **** ""
2 22 23
ATOM$RED        STATIC     ATOMS    COLORGROUP SYSTEM
2 22 23
@<TRIPOS>COMMENT
> <Gold.Version>
2022.3.0

> <Gold.Id.Protein>
unknown|3owp_clean|pdb

> <Gold.Protein.RotatedTorsions>
[ 3671 3662 3661 3659 ] final   13.81 input   60.00 | X-H torsion
[ 3591 3582 3581 3579 ] final  172.23 input   60.01 | X-H torsion
[ 3859 3850 3849 3847 ] final -126.48 input   60.02 | X-H torsion
[ 3132 3125 3123 3120 ] final   14.01 input   60.00 | X-H torsion
[ 5167 5158 5157 5155 ] final   92.60 input   60.02 | X-H torsion
[ 2604 2593 2592 2591 ] final  132.12 input   59.97 | X-H torsion
[  605  600  598  595 ] final  -15.24 input   60.04 | X-H torsion
[ 1932 1928 1927 1924 ] final -132.67 input   59.99 | X-H torsion
[ 3182 3173 3172 3170 ] final   20.78 input   60.01 | X-H torsion
[  625  620  619  616 ] final  118.15 input   60.02 | X-H torsion

> <Gold.Protein.ActiveResidues>
 LEU49   GLY50   THR51   GLY52   SER53   PHE54   GLY55   VAL79   LEU82   LYS83  
 GLN84   HIS87   THR88   GLY126  GLU127  MET128  PHE129  SER130  HIS131  LEU132 
 ARG133  ARG134  ILE135  GLY136  ARG137  ARG165  ASP166  LEU167  LYS168  PRO169 
 GLU170  ASN171  LEU172  LEU173  ASP184  GLY186  PHE187  TPO197  LEU198  CYS199 
 GLY200  THR201  PRO202  GLU203  TYR204  LEU205  ILE209  ILE210  VAL226  LEU227 
 TYR229  GLU230  ALA233  GLY234  TYR235  PRO236  PRO237  PHE238  PHE239  ALA240 
 ASP241  GLN242  PRO243  ILE244  GLN245  ILE246  TYR247  LYS249  ARG256  PHE257 
 PRO258  SER259  ASN326  PHE327  ASP328  ASP329  TYR330 

> <Gold.Protein.RotatedAtoms>
   20.4001  -12.9024    6.1898 H   0  0  0  0  0  0  0  0  0  0  0  0  # atno 605  bound_to 600 
   16.5079  -12.3715   -2.8560 H   0  0  0  0  0  0  0  0  0  0  0  0  # atno 625  bound_to 620 
   26.3007   -5.6794   12.6966 H   0  0  0  0  0  0  0  0  0  0  0  0  # atno 1932 bound_to 1928
   19.4395   -4.6049   -0.0514 H   0  0  0  0  0  0  0  0  0  0  0  0  # atno 2604 bound_to 2593
   19.3006   -4.7531    1.5932 H   0  0  0  0  0  0  0  0  0  0  0  0  # atno 2605 bound_to 2593
   18.7200   -3.4011    0.8308 H   0  0  0  0  0  0  0  0  0  0  0  0  # atno 2606 bound_to 2593
   17.7332   -2.5646   -1.5300 H   0  0  0  0  0  0  0  0  0  0  0  0  # atno 3132 bound_to 3125
   21.0209    3.8316    4.3499 H   0  0  0  0  0  0  0  0  0  0  0  0  # atno 3182 bound_to 3173
   16.1716   14.8535    7.3851 H   0  0  0  0  0  0  0  0  0  0  0  0  # atno 3591 bound_to 3582
   15.7511   14.0179   11.3435 H   0  0  0  0  0  0  0  0  0  0  0  0  # atno 3671 bound_to 3662
    9.1837   -0.9752   -3.5654 H   0  0  0  0  0  0  0  0  0  0  0  0  # atno 3859 bound_to 3850
   23.2259  -10.4885    8.4341 H   0  0  0  0  0  0  0  0  0  0  0  0  # atno 5167 bound_to 5158
   17.2264   13.9748   12.0295 LP  0  0  0  0  0  0  0  0  0  0  0  0  # atno 5485 bound_to 3662
   15.8935   13.7143   12.9362 LP  0  0  0  0  0  0  0  0  0  0  0  0  # atno 5486 bound_to 3662
   16.5354   13.8167    8.5855 LP  0  0  0  0  0  0  0  0  0  0  0  0  # atno 5493 bound_to 3582
   15.4869   13.3775    7.4132 LP  0  0  0  0  0  0  0  0  0  0  0  0  # atno 5494 bound_to 3582
    9.1062   -0.9392   -1.9402 LP  0  0  0  0  0  0  0  0  0  0  0  0  # atno 5549 bound_to 3850
   10.4337   -0.3803   -2.7098 LP  0  0  0  0  0  0  0  0  0  0  0  0  # atno 5550 bound_to 3850
   17.7376   -2.9425    0.0527 LP  0  0  0  0  0  0  0  0  0  0  0  0  # atno 5553 bound_to 3125
   18.8981   -1.9715   -0.5611 LP  0  0  0  0  0  0  0  0  0  0  0  0  # atno 5554 bound_to 3125
   23.6241  -10.0734    9.9561 LP  0  0  0  0  0  0  0  0  0  0  0  0  # atno 5563 bound_to 5158
   22.0541  -10.1837    9.5209 LP  0  0  0  0  0  0  0  0  0  0  0  0  # atno 5564 bound_to 5158
   19.8270  -14.0866    7.1474 LP  0  0  0  0  0  0  0  0  0  0  0  0  # atno 5571 bound_to 600 
   19.0301  -13.6797    5.7813 LP  0  0  0  0  0  0  0  0  0  0  0  0  # atno 5572 bound_to 600 
   26.7609   -5.1142   11.2420 LP  0  0  0  0  0  0  0  0  0  0  0  0  # atno 5573 bound_to 1928
   25.3105   -4.6934   11.8634 LP  0  0  0  0  0  0  0  0  0  0  0  0  # atno 5574 bound_to 1928
   21.0482    5.4082    3.9467 LP  0  0  0  0  0  0  0  0  0  0  0  0  # atno 5603 bound_to 3173
   22.2778    4.4283    3.5055 LP  0  0  0  0  0  0  0  0  0  0  0  0  # atno 5604 bound_to 3173
   17.5026  -12.3050   -1.5699 LP  0  0  0  0  0  0  0  0  0  0  0  0  # atno 5611 bound_to 620 
   16.2741  -11.2385   -1.7117 LP  0  0  0  0  0  0  0  0  0  0  0  0  # atno 5612 bound_to 620 

> <Gold.Score>
     Fitness  S(hb_ext) S(vdw_ext)  S(hb_int)    S(int)      intcor
     35.91       0.00      26.61       0.00      -0.67      -0.76

> <Gold.Goldscore.Fitness>
35.9129

> <Gold.Goldscore.Internal.Vdw>
-0.8172

> <Gold.Goldscore.Internal.Torsion>
-0.6131

> <Gold.Goldscore.External.Vdw>
26.6070

> <Gold.Goldscore.Internal.HBond>
0.0000

> <Gold.Goldscore.External.HBond>
0.0000

> <Gold.Goldscore.Internal.Correction>
-0.7585

> <Gold.Goldscore.Internal.Vdw.Weighted>
-0.8172

> <Gold.Goldscore.Internal.Torsion.Weighted>
-0.6131

> <Gold.Goldscore.External.Vdw.Weighted>
36.5847

> <Gold.Goldscore.Internal.HBond.Weighted>
0.0000

> <Gold.Goldscore.External.HBond.Weighted>
0.0000

> <Gold.Goldscore.Internal.Correction.Weighted>
-0.7585

> <Gold.Rescore>
     Score     S(PLP)   S(hbond)     S(cho)   S(metal)  DE(clash)   DE(tors)     intcor
     29.40     -31.34       0.00       0.00       0.00       0.00       0.97       ----

> <Gold.PLP.Fitness>
29.4008

> <Gold.PLP.PLP>
-31.3382

> <Gold.PLP.part.hbond>
0.0000

> <Gold.PLP.part.metal>
0.0000

> <Gold.PLP.part.buried>
-0.2637

> <Gold.PLP.part.nonpolar>
-30.3961

> <Gold.PLP.part.repulsive>
0.1474

> <Gold.PLP.ligand.clash>
0.0000

> <Gold.PLP.ligand.torsion>
0.9687

> <Gold.PLP.Chemscore.Hbond>
0.0000

> <Gold.PLP.Chemscore.CHOScore>
0.0000

> <Gold.PLP.Chemscore.Metal>
0.0000

> <Gold.PLP.Chemscore.Internal.Correction>
   9.000000E+99

