@<TRIPOS>MOLECULE
MOL
   75    80     1     0     0
SMALL
bcc


@<TRIPOS>ATOM
      1 O1           2.4840     8.7480    17.1590 o          1 MOL      -0.600500
      2 C1           2.0780     8.7450    18.3040 c          1 MOL       0.734100
      3 N1           2.3530     7.7670    19.2700 n          1 MOL      -0.384000
      4 C2           3.1680     6.6110    19.0870 ca         1 MOL       0.092600
      5 C3           2.9170     5.4170    19.7690 ca         1 MOL      -0.149000
      6 C4           3.7260     4.3130    19.5380 ca         1 MOL      -0.082000
      7 C5           4.7790     4.3910    18.6380 ca         1 MOL      -0.134000
      8 C6           5.0420     5.5780    17.9470 ca         1 MOL      -0.085300
      9 C7           6.1700     5.7060    16.9090 cy         1 MOL       0.008600
     10 C8           7.1500     6.7430    17.4260 cc         1 MOL       0.088100
     11 N2           7.3910     7.8820    16.8340 na         1 MOL       0.012400
     12 N3           8.3220     8.5470    17.6110 n2         1 MOL      -0.430800
     13 C9           8.5940     7.7770    18.6280 cc         1 MOL       0.436400
     14 N4           7.8930     6.6420    18.5610 na         1 MOL      -0.174900
     15 C10          7.9350     5.5500    19.5240 c3         1 MOL       0.000600
     16 C11          5.5910     5.9900    15.4740 cy         1 MOL      -0.080400
     17 C12          5.7010     4.4630    15.2040 cy         1 MOL      -0.064700
     18 C13          6.1370     4.0170    13.8120 c3         1 MOL      -0.097100
     19 C14          6.7730     4.4220    16.3270 cy         1 MOL      -0.080400
     20 C15          4.2300     6.6800    18.1870 ca         1 MOL      -0.160000
     21 C16          1.7030     8.0480    20.5510 c3         1 MOL       0.115300
     22 C17          0.9670     9.3250    20.2640 ca         1 MOL       0.003700
     23 C18          0.1150    10.0730    21.0810 ca         1 MOL      -0.151300
     24 C19         -0.2300     9.6130    22.4660 c3         1 MOL       0.693200
     25 C20         -0.4480    11.2470    20.5700 ca         1 MOL      -0.033000
     26 C21         -0.2160    11.6600    19.2470 ca         1 MOL      -0.173300
     27 C22         -0.9610    12.8370    18.6700 c3         1 MOL       0.169100
     28 N5          -2.3040    12.4710    18.0660 n4         1 MOL      -0.686400
     29 C23         -2.2150    11.4980    16.9230 c3         1 MOL       0.106800
     30 C24         -3.5540    11.2470    16.2550 c3         1 MOL      -0.080700
     31 C25         -3.4240    10.2440    15.1160 c3         1 MOL      -0.100100
     32 C26         -4.5790    10.7990    17.2960 c3         1 MOL      -0.098400
     33 C27         -4.6700    11.7860    18.4600 c3         1 MOL      -0.106400
     34 C28         -3.3120    12.0150    19.0930 c3         1 MOL       0.109800
     35 C29          0.6300    10.8930    18.4490 ca         1 MOL      -0.009000
     36 C30          1.1930     9.7310    18.9630 ca         1 MOL      -0.159600
     37 F1           0.8200     9.4190    23.1830 f          1 MOL      -0.216967
     38 F2          -0.9780    10.4690    23.0730 f          1 MOL      -0.216967
     39 F3          -0.8440     8.4650    22.4830 f          1 MOL      -0.216967
     40 H1           2.0840     5.3530    20.4840 ha         1 MOL       0.153000
     41 H2           3.5310     3.3710    20.0720 ha         1 MOL       0.163000
     42 H3           5.4140     3.5090    18.4660 ha         1 MOL       0.142000
     43 H4           6.9690     8.2200    15.9570 hn         1 MOL       0.385700
     44 H5           9.3030     8.0280    19.4310 h5         1 MOL       0.130100
     45 H6           7.9190     5.9600    20.5440 h1         1 MOL       0.097700
     46 H7           7.0610     4.8980    19.3770 h1         1 MOL       0.097700
     47 H8           8.8560     4.9670    19.3770 h1         1 MOL       0.097700
     48 H9           4.5650     6.3850    15.4630 hc         1 MOL       0.075200
     49 H10          6.0470     6.7310    14.8020 hc         1 MOL       0.075200
     50 H11          4.8140     3.8130    15.2200 hc         1 MOL       0.090700
     51 H12          6.9030     3.2330    13.9020 hc         1 MOL       0.052700
     52 H13          5.2690     3.6200    13.2650 hc         1 MOL       0.052700
     53 H14          6.5530     4.8760    13.2650 hc         1 MOL       0.052700
     54 H15          7.8080     4.5290    15.9700 hc         1 MOL       0.075200
     55 H16          6.9060     3.5260    16.9510 hc         1 MOL       0.075200
     56 H17          4.4290     7.6230    17.6570 ha         1 MOL       0.160000
     57 H18          1.0080     7.2420    20.8300 h1         1 MOL       0.106700
     58 H19          2.4060     8.1250    21.3940 h1         1 MOL       0.106700
     59 H20         -1.0880    11.8620    21.2200 ha         1 MOL       0.167000
     60 H21         -1.1290    13.5690    19.4730 hx         1 MOL       0.110700
     61 H22         -0.3420    13.2420    17.8560 hx         1 MOL       0.110700
     62 H23         -2.6500    13.3560    17.6680 hn         1 MOL       0.450800
     63 H24         -1.5190    11.9010    16.1730 hx         1 MOL       0.098200
     64 H25         -1.8660    10.5390    17.3330 hx         1 MOL       0.098200
     65 H26         -3.9090    12.1870    15.8080 hc         1 MOL       0.074700
     66 H27         -3.2930     9.2330    15.5300 hc         1 MOL       0.061700
     67 H28         -4.3330    10.2720    14.4980 hc         1 MOL       0.061700
     68 H29         -2.5520    10.5020    14.4980 hc         1 MOL       0.061700
     69 H30         -5.5650    10.7230    16.8150 hc         1 MOL       0.082200
     70 H31         -4.2590     9.8250    17.6960 hc         1 MOL       0.082200
     71 H32         -5.0580    12.7450    18.0870 hc         1 MOL       0.091200
     72 H33         -5.3420    11.3650    19.2220 hc         1 MOL       0.091200
     73 H34         -2.9630    11.0750    19.5460 hx         1 MOL       0.100200
     74 H35         -3.4110    12.7990    19.8580 hx         1 MOL       0.100200
     75 H36          0.8510    11.2050    17.4180 ha         1 MOL       0.168000
@<TRIPOS>BOND
     1     1     2 2   
     2     2     3 1   
     3     2    36 1   
     4     3     4 1   
     5     3    21 1   
     6     4     5 ar  
     7     4    20 ar  
     8     5     6 ar  
     9     6     7 ar  
    10     7     8 ar  
    11     8    20 ar  
    12     9     8 1   
    13     9    10 1   
    14     9    16 1   
    15     9    19 1   
    16    10    11 2   
    17    10    14 1   
    18    11    12 1   
    19    12    13 2   
    20    13    14 1   
    21    14    15 1   
    22    16    17 1   
    23    17    18 1   
    24    17    19 1   
    25    21    22 1   
    26    22    23 ar  
    27    22    36 ar  
    28    23    24 1   
    29    23    25 ar  
    30    24    37 1   
    31    24    38 1   
    32    24    39 1   
    33    25    26 ar  
    34    26    27 1   
    35    26    35 ar  
    36    27    28 1   
    37    28    29 1   
    38    28    34 1   
    39    29    30 1   
    40    30    31 1   
    41    30    32 1   
    42    32    33 1   
    43    33    34 1   
    44    35    36 ar  
    45     5    40 1   
    46     6    41 1   
    47     7    42 1   
    48    11    43 1   
    49    13    44 1   
    50    15    45 1   
    51    15    46 1   
    52    15    47 1   
    53    16    48 1   
    54    16    49 1   
    55    17    50 1   
    56    18    51 1   
    57    18    52 1   
    58    18    53 1   
    59    19    54 1   
    60    19    55 1   
    61    20    56 1   
    62    21    57 1   
    63    21    58 1   
    64    25    59 1   
    65    27    60 1   
    66    27    61 1   
    67    28    62 1   
    68    29    63 1   
    69    29    64 1   
    70    30    65 1   
    71    31    66 1   
    72    31    67 1   
    73    31    68 1   
    74    32    69 1   
    75    32    70 1   
    76    33    71 1   
    77    33    72 1   
    78    34    73 1   
    79    34    74 1   
    80    35    75 1   
@<TRIPOS>SUBSTRUCTURE
     1 MOL         1 TEMP              0 ****  ****    0 ROOT
