#       Name:                CT1002167954
#       Creating user name   hitesit
#       Creation time:       Sun Apr 16 22:58:03 2023


#       File generated by GOLD software.
#

@<TRIPOS>MOLECULE
CT1002167954|ligand_prepared|mol2|1|dock7
    29    30     1
SMALL
NO_CHARGES


@<TRIPOS>ATOM
      1 C1         191.9400  -7.4228  44.8684 C.3            1 RES1               0.0000
      2 C2         191.8759  -6.7350  46.2474 C.ar           1 RES1               0.0000
      3 C3         190.5080  -7.4640  44.3432 C.2            1 RES1               0.0000
      4 C4         192.8905  -6.5868  44.0186 C.2            1 RES1               0.0000
      5 C5         192.4876  -8.8683  44.9160 C.3            1 RES1               0.0000
      6 C6         192.7994  -7.0497  47.2398 C.ar           1 RES1               0.0000
      7 C7         190.9024  -5.7837  46.5406 C.ar           1 RES1               0.0000
      8 N8         190.1788  -6.6036  43.3377 N.am           1 RES1               0.0000
      9 O9         189.6699  -8.2124  44.8308 O.2            1 RES1               0.0000
     10 N10        192.3728  -5.9318  42.9319 N.am           1 RES1               0.0000
     11 O11        194.0799  -6.4760  44.2897 O.2            1 RES1               0.0000
     12 C12        192.2841  -9.6438  43.6240 C.3            1 RES1               0.0000
     13 C13        192.7534  -6.4335  48.4794 C.ar           1 RES1               0.0000
     14 C14        190.8580  -5.1689  47.7809 C.ar           1 RES1               0.0000
     15 C15        191.0542  -5.8776  42.5707 C.2            1 RES1               0.0000
     16 C16        191.7830  -5.4925  48.7506 C.ar           1 RES1               0.0000
     17 O17        190.6582  -5.2222  41.6111 O.2            1 RES1               0.0000
     18 H18        193.5606  -8.8322  45.1410 H              1 RES1               0.0000
     19 H19        191.9917  -9.4070  45.7329 H              1 RES1               0.0000
     20 H20        193.5688  -7.7895  47.0455 H              1 RES1               0.0000
     21 H21        190.1638  -5.5142  45.7934 H              1 RES1               0.0000
     22 H22        189.1902  -6.4893  43.1375 H              1 RES1               0.0000
     23 H23        193.0315  -5.4392  42.3371 H              1 RES1               0.0000
     24 H24        192.6861 -10.6511  43.7114 H              1 RES1               0.0000
     25 H25        191.2259  -9.7210  43.3829 H              1 RES1               0.0000
     26 H26        192.7856  -9.1496  42.7945 H              1 RES1               0.0000
     27 H27        193.4828  -6.6927  49.2396 H              1 RES1               0.0000
     28 H28        190.0922  -4.4293  47.9903 H              1 RES1               0.0000
     29 H29        191.7474  -5.0096  49.7216 H              1 RES1               0.0000
@<TRIPOS>BOND
    1    1    2 1     
    2    1    3 1     
    3    1    4 1     
    4    1    5 1     
    5    2    6 ar    
    6    2    7 ar    
    7    3    8 1     
    8    3    9 2     
    9    4   10 1     
   10    4   11 2     
   11    5   12 1     
   12    5   18 1     
   13    5   19 1     
   14    6   13 ar    
   15    6   20 1     
   16    7   14 ar    
   17    7   21 1     
   18    8   15 1     
   19    8   22 1     
   20   10   15 1     
   21   10   23 1     
   22   12   24 1     
   23   12   25 1     
   24   12   26 1     
   25   13   16 ar    
   26   13   27 1     
   27   14   16 ar    
   28   14   28 1     
   29   15   17 2     
   30   16   29 1     
@<TRIPOS>SUBSTRUCTURE
      1 RES1           1
@<TRIPOS>SET
DONOR_HYDROGENS      STATIC     ATOMS    <user>   **** ""
2 22 23
ATOM$RED        STATIC     ATOMS    COLORGROUP SYSTEM
2 22 23
@<TRIPOS>COMMENT
> <Gold.Version>
2022.3.0

> <Gold.Id.Protein>
unknown|4d1n_clean|pdb

> <Gold.Protein.RotatedTorsions>
[ 6595 6557 6558 6559 ] final -137.09 input  116.17 | X-H torsion
[ 6682 6637 6638 6639 ] final   37.22 input  120.05 | X-H torsion
[ 8044 8009 8010 8011 ] final  -83.87 input   40.01 | X-H torsion
[ 8121 8086 8087 8088 ] final -119.04 input   93.99 | X-H torsion
[ 8182 8152 8153 8154 ] final -144.94 input   75.44 | X-H torsion
[ 8262 8220 8221 8222 ] final  -45.70 input   81.29 | X-H torsion
[ 9562 9520 9519 9517 ] final  120.29 input   60.00 | X-H torsion
[ 8325 8297 8298 8299 ] final   60.72 input   91.63 | X-H torsion
[ 10204 10169 10170 10171 ] final  157.10 input   34.07 | X-H torsion
[ 7962 7922 7923 7924 ] final   29.76 input   79.92 | X-H torsion
[ 7893 7875 7876 7877 ] final  122.20 input   91.72 | X-H torsion
[ 7902 7880 7879 7876 ] final -107.00 input   60.02 | X-H torsion
[ 6826 6786 6787 6788 ] final  106.94 input  113.73 | X-H torsion
[ 27193 6320 6319 6318 ] final   12.70 input    0.00 | X-H torsion
[ 27196 6560 6559 6558 ] final   48.55 input    0.00 | X-H torsion
[ 27199 7878 7877 7876 ] final   14.78 input    0.00 | X-H torsion
[ 27202 8012 8011 8010 ] final  -41.71 input    0.00 | X-H torsion
[ 27205 8089 8088 8087 ] final   97.83 input   -0.00 | X-H torsion
[ 27208 8155 8154 8153 ] final -123.33 input   -0.00 | X-H torsion
[ 27214 10086 10085 10084 ] final -157.37 input    0.00 | X-H torsion
[ 27217 10172 10171 10170 ] final  -40.24 input    0.00 | X-H torsion
[ 27220 6367 6366 6365 ] final -152.43 input    0.00 | X-H torsion
[ 27222 7925 7924 7923 ] final -154.41 input   -0.00 | X-H torsion
[ 27224 7790 7789 7788 ] final -175.13 input   -0.00 | X-H torsion

> <Gold.Protein.ActiveResidues>
 ASP403  THR404  LEU406  ILE407  TYR408  ALA410  LYS411  TRP414  TRP426  SER427 
 LYS428  LEU429  GLN430  VAL431  PHE432  ASP433  TYR453  SER462  ALA463  ILE464 

> <Gold.Protein.RotatedAtoms>
  195.1368   -2.5788   37.4104 H   0  0  0  0  0  0  0  0  0  0  0  0  # atno 6595 bound_to 6557
  197.7136   -2.2905   38.9579 H   0  0  0  0  0  0  0  0  0  0  0  0  # atno 6682 bound_to 6637
  196.9991    0.1988   42.0466 H   0  0  0  0  0  0  0  0  0  0  0  0  # atno 6826 bound_to 6786
  197.7812   -0.7018   50.5616 H   0  0  0  0  0  0  0  0  0  0  0  0  # atno 7893 bound_to 7875
  198.7360   -3.0915   51.2754 H   0  0  0  0  0  0  0  0  0  0  0  0  # atno 7902 bound_to 7880
  194.9029   -1.3395   49.8431 H   0  0  0  0  0  0  0  0  0  0  0  0  # atno 7962 bound_to 7922
  192.0768   -2.7789   48.7677 H   0  0  0  0  0  0  0  0  0  0  0  0  # atno 8044 bound_to 8009
  190.7458   -2.6930   46.3506 H   0  0  0  0  0  0  0  0  0  0  0  0  # atno 8121 bound_to 8086
  189.8665   -2.3623   43.4320 H   0  0  0  0  0  0  0  0  0  0  0  0  # atno 8182 bound_to 8152
  188.8172   -2.0541   39.7358 H   0  0  0  0  0  0  0  0  0  0  0  0  # atno 8262 bound_to 8220
  187.0831   -3.5462   36.7790 H   0  0  0  0  0  0  0  0  0  0  0  0  # atno 8325 bound_to 8297
  185.5813   -5.6410   48.5083 H   0  0  0  0  0  0  0  0  0  0  0  0  # atno 9562 bound_to 9520
  188.4523    1.6188   44.1393 H   0  0  0  0  0  0  0  0  0  0  0  0  # atno 10204 bound_to 10169
  194.7543   -4.7619   36.2552 LP  0  0  0  0  0  0  0  0  0  0  0  0  # atno 27193 bound_to 6320
  196.3025   -5.0923   36.9580 LP  0  0  0  0  0  0  0  0  0  0  0  0  # atno 27194 bound_to 6320
  196.7851   -3.0970   37.6662 LP  0  0  0  0  0  0  0  0  0  0  0  0  # atno 27195 bound_to 6557
  196.0259   -1.7739   41.8740 LP  0  0  0  0  0  0  0  0  0  0  0  0  # atno 27196 bound_to 6560
  197.1985   -0.7175   41.1604 LP  0  0  0  0  0  0  0  0  0  0  0  0  # atno 27197 bound_to 6560
  197.5098   -3.5327   40.1748 LP  0  0  0  0  0  0  0  0  0  0  0  0  # atno 27198 bound_to 6637
  196.3401   -4.2159   47.9280 LP  0  0  0  0  0  0  0  0  0  0  0  0  # atno 27199 bound_to 7878
  194.6464   -4.1539   48.2848 LP  0  0  0  0  0  0  0  0  0  0  0  0  # atno 27200 bound_to 7878
  193.5513   -2.4491   47.8897 LP  0  0  0  0  0  0  0  0  0  0  0  0  # atno 27201 bound_to 8009
  192.8165   -2.7346   45.0194 LP  0  0  0  0  0  0  0  0  0  0  0  0  # atno 27202 bound_to 8012
  191.6733   -4.0264   45.1762 LP  0  0  0  0  0  0  0  0  0  0  0  0  # atno 27203 bound_to 8012
  189.5687   -1.4048   46.2223 LP  0  0  0  0  0  0  0  0  0  0  0  0  # atno 27204 bound_to 8086
  189.2293   -0.3594   43.6384 LP  0  0  0  0  0  0  0  0  0  0  0  0  # atno 27205 bound_to 8089
  187.6529   -1.0628   43.4959 LP  0  0  0  0  0  0  0  0  0  0  0  0  # atno 27206 bound_to 8089
  189.3992   -3.8608   42.6571 LP  0  0  0  0  0  0  0  0  0  0  0  0  # atno 27207 bound_to 8152
  188.7882   -4.2326   39.0245 LP  0  0  0  0  0  0  0  0  0  0  0  0  # atno 27208 bound_to 8155
  188.6893   -4.6983   40.6898 LP  0  0  0  0  0  0  0  0  0  0  0  0  # atno 27209 bound_to 8155
  187.5186   -1.5490   40.7868 LP  0  0  0  0  0  0  0  0  0  0  0  0  # atno 27210 bound_to 8220
  186.4202   -4.3645   47.9467 LP  0  0  0  0  0  0  0  0  0  0  0  0  # atno 27211 bound_to 9520
  186.2484   -5.7016   47.0251 LP  0  0  0  0  0  0  0  0  0  0  0  0  # atno 27212 bound_to 9520
  187.8397   -2.1400   37.4944 LP  0  0  0  0  0  0  0  0  0  0  0  0  # atno 27213 bound_to 8297
  187.9087   -1.0692   46.8652 LP  0  0  0  0  0  0  0  0  0  0  0  0  # atno 27214 bound_to 10086
  187.4410   -1.2641   48.5215 LP  0  0  0  0  0  0  0  0  0  0  0  0  # atno 27215 bound_to 10086
  187.1367    0.8580   43.2719 LP  0  0  0  0  0  0  0  0  0  0  0  0  # atno 27216 bound_to 10169
  188.5127    0.1364   40.9931 LP  0  0  0  0  0  0  0  0  0  0  0  0  # atno 27217 bound_to 10172
  186.8935    0.0625   40.3827 LP  0  0  0  0  0  0  0  0  0  0  0  0  # atno 27218 bound_to 10172
  195.6689   -2.9023   50.0254 LP  0  0  0  0  0  0  0  0  0  0  0  0  # atno 27219 bound_to 7922
  198.3189   -4.0453   37.9796 LP  0  0  0  0  0  0  0  0  0  0  0  0  # atno 27220 bound_to 6367
  198.3768   -5.6062   38.7280 LP  0  0  0  0  0  0  0  0  0  0  0  0  # atno 27221 bound_to 6367
  191.0176   -0.9067   49.4378 LP  0  0  0  0  0  0  0  0  0  0  0  0  # atno 27222 bound_to 7925
  192.2061   -0.7663   50.6899 LP  0  0  0  0  0  0  0  0  0  0  0  0  # atno 27223 bound_to 7925
  196.0565   -0.5566   47.6321 LP  0  0  0  0  0  0  0  0  0  0  0  0  # atno 27224 bound_to 7790
  195.9725    1.1724   47.6913 LP  0  0  0  0  0  0  0  0  0  0  0  0  # atno 27225 bound_to 7790
  196.4027   -0.1350   49.6593 LP  0  0  0  0  0  0  0  0  0  0  0  0  # atno 27226 bound_to 7875
  198.2616   -4.5088   50.6308 LP  0  0  0  0  0  0  0  0  0  0  0  0  # atno 27227 bound_to 7880
  197.1601   -3.3492   50.9604 LP  0  0  0  0  0  0  0  0  0  0  0  0  # atno 27228 bound_to 7880

> <Gold.Score>
     Fitness  S(hb_ext) S(vdw_ext)  S(hb_int)    S(int)      intcor
     33.47       8.28      18.88       0.00      -0.77      -0.76

> <Gold.Goldscore.Fitness>
33.4743

> <Gold.Goldscore.Internal.Vdw>
-0.9270

> <Gold.Goldscore.Internal.Torsion>
-0.5999

> <Gold.Goldscore.External.Vdw>
18.8846

> <Gold.Goldscore.Internal.HBond>
0.0000

> <Gold.Goldscore.External.HBond>
8.2776

> <Gold.Goldscore.Internal.Correction>
-0.7573

> <Gold.Goldscore.Hbonds>
donor molecule, donor type, donor heavy atom, donor atom, acceptor molecule, acceptor atom, score
      P1  H  6794  6837       L1    11  0.36
      P1  H  8093  8127       L1     9  0.05
      L1  H     8    22       P1  8094  1.00

> <Gold.Goldscore.Internal.Vdw.Weighted>
-0.9270

> <Gold.Goldscore.Internal.Torsion.Weighted>
-0.5999

> <Gold.Goldscore.External.Vdw.Weighted>
25.9663

> <Gold.Goldscore.Internal.HBond.Weighted>
0.0000

> <Gold.Goldscore.External.HBond.Weighted>
8.2776

> <Gold.Goldscore.Internal.Correction.Weighted>
-0.7573

> <Gold.Rescore>
     Score     S(PLP)   S(hbond)     S(cho)   S(metal)  DE(clash)   DE(tors)     intcor
     30.09     -24.60       2.33       0.00       0.00       1.21       0.14       ----

> <Gold.PLP.Fitness>
30.0949

> <Gold.PLP.PLP>
-24.6007

> <Gold.PLP.part.hbond>
-3.5700

> <Gold.PLP.part.metal>
0.0000

> <Gold.PLP.part.buried>
-4.2798

> <Gold.PLP.part.nonpolar>
-18.1989

> <Gold.PLP.part.repulsive>
0.7932

> <Gold.PLP.ligand.clash>
1.2082

> <Gold.PLP.ligand.torsion>
0.1404

> <Gold.PLP.Chemscore.Hbond>
2.3278

> <Gold.PLP.Chemscore.CHOScore>
0.0000

> <Gold.PLP.Chemscore.Metal>
0.0000

> <Gold.Chemscore.Hbonds>
donor molecule, donor type, donor heavy atom, donor atom, acceptor molecule, acceptor atom, score
      L1  H     8    22       P1  8094  0.40
      P1  H  6794  6837       L1    11  1.00
      P1  H  8093  8127       L1     9  0.85

> <Gold.PLP.Chemscore.Internal.Correction>
   9.000000E+99

#       Name:                CT1002167954
#       Creating user name   hitesit
#       Creation time:       Sun Apr 16 22:58:01 2023


#       File generated by GOLD software.
#

@<TRIPOS>MOLECULE
CT1002167954|ligand_prepared|mol2|1|dock2
    29    30     1
SMALL
NO_CHARGES


@<TRIPOS>ATOM
      1 C1         191.7471  -6.1779  47.9453 C.3            1 RES1               0.0000
      2 C2         190.8100  -5.1884  48.6675 C.ar           1 RES1               0.0000
      3 C3         193.0630  -5.4380  47.7239 C.2            1 RES1               0.0000
      4 C4         191.8637  -7.3961  48.8548 C.2            1 RES1               0.0000
      5 C5         191.2149  -6.6548  46.5739 C.3            1 RES1               0.0000
      6 C6         189.9182  -4.4012  47.9452 C.ar           1 RES1               0.0000
      7 C7         190.8240  -5.0537  50.0533 C.ar           1 RES1               0.0000
      8 N8         194.1236  -5.7870  48.5069 N.am           1 RES1               0.0000
      9 O9         193.1578  -4.5348  46.9020 O.2            1 RES1               0.0000
     10 N10        193.0867  -7.6685  49.4096 N.am           1 RES1               0.0000
     11 O11        190.9037  -8.1130  49.1092 O.2            1 RES1               0.0000
     12 C12        191.9849  -7.8299  45.9922 C.3            1 RES1               0.0000
     13 C13        189.0690  -3.5137  48.5851 C.ar           1 RES1               0.0000
     14 C14        189.9741  -4.1654  50.6912 C.ar           1 RES1               0.0000
     15 C15        194.2147  -6.9016  49.3014 C.2            1 RES1               0.0000
     16 C16        189.0960  -3.3955  49.9584 C.ar           1 RES1               0.0000
     17 O17        195.2631  -7.1834  49.8747 O.2            1 RES1               0.0000
     18 H18        190.1620  -6.9425  46.6843 H              1 RES1               0.0000
     19 H19        191.2612  -5.8175  45.8666 H              1 RES1               0.0000
     20 H20        189.8844  -4.4787  46.8636 H              1 RES1               0.0000
     21 H21        191.5072  -5.6484  50.6500 H              1 RES1               0.0000
     22 H22        194.9230  -5.1615  48.5013 H              1 RES1               0.0000
     23 H23        193.1634  -8.5221  49.9535 H              1 RES1               0.0000
     24 H24        191.5707  -8.1243  45.0302 H              1 RES1               0.0000
     25 H25        193.0314  -7.5706  45.8455 H              1 RES1               0.0000
     26 H26        191.9387  -8.6889  46.6584 H              1 RES1               0.0000
     27 H27        188.3808  -2.9091  48.0037 H              1 RES1               0.0000
     28 H28        189.9992  -4.0752  51.7722 H              1 RES1               0.0000
     29 H29        188.4304  -2.7004  50.4595 H              1 RES1               0.0000
@<TRIPOS>BOND
    1    1    2 1     
    2    1    3 1     
    3    1    4 1     
    4    1    5 1     
    5    2    6 ar    
    6    2    7 ar    
    7    3    8 1     
    8    3    9 2     
    9    4   10 1     
   10    4   11 2     
   11    5   12 1     
   12    5   18 1     
   13    5   19 1     
   14    6   13 ar    
   15    6   20 1     
   16    7   14 ar    
   17    7   21 1     
   18    8   15 1     
   19    8   22 1     
   20   10   15 1     
   21   10   23 1     
   22   12   24 1     
   23   12   25 1     
   24   12   26 1     
   25   13   16 ar    
   26   13   27 1     
   27   14   16 ar    
   28   14   28 1     
   29   15   17 2     
   30   16   29 1     
@<TRIPOS>SUBSTRUCTURE
      1 RES1           1
@<TRIPOS>SET
DONOR_HYDROGENS      STATIC     ATOMS    <user>   **** ""
2 22 23
ATOM$RED        STATIC     ATOMS    COLORGROUP SYSTEM
2 22 23
@<TRIPOS>COMMENT
> <Gold.Version>
2022.3.0

> <Gold.Id.Protein>
unknown|4d1n_clean|pdb

> <Gold.Protein.RotatedTorsions>
[ 6595 6557 6558 6559 ] final  179.91 input  116.17 | X-H torsion
[ 6682 6637 6638 6639 ] final -134.69 input  120.05 | X-H torsion
[ 8044 8009 8010 8011 ] final  -55.63 input   40.01 | X-H torsion
[ 8121 8086 8087 8088 ] final  -90.61 input   93.99 | X-H torsion
[ 8182 8152 8153 8154 ] final  -28.21 input   75.44 | X-H torsion
[ 8262 8220 8221 8222 ] final  -16.89 input   81.29 | X-H torsion
[ 9562 9520 9519 9517 ] final  -33.38 input   60.00 | X-H torsion
[ 8325 8297 8298 8299 ] final  148.07 input   91.63 | X-H torsion
[ 10204 10169 10170 10171 ] final   95.00 input   34.07 | X-H torsion
[ 7962 7922 7923 7924 ] final   89.09 input   79.92 | X-H torsion
[ 7893 7875 7876 7877 ] final  151.65 input   91.72 | X-H torsion
[ 7902 7880 7879 7876 ] final   72.82 input   60.02 | X-H torsion
[ 6826 6786 6787 6788 ] final   44.67 input  113.73 | X-H torsion
[ 27193 6320 6319 6318 ] final  -91.78 input    0.00 | X-H torsion
[ 27196 6560 6559 6558 ] final   59.56 input    0.00 | X-H torsion
[ 27199 7878 7877 7876 ] final  161.48 input    0.00 | X-H torsion
[ 27202 8012 8011 8010 ] final  174.49 input    0.00 | X-H torsion
[ 27205 8089 8088 8087 ] final -122.98 input   -0.00 | X-H torsion
[ 27208 8155 8154 8153 ] final  -10.80 input   -0.00 | X-H torsion
[ 27214 10086 10085 10084 ] final -133.79 input    0.00 | X-H torsion
[ 27217 10172 10171 10170 ] final  -55.88 input    0.00 | X-H torsion
[ 27220 6367 6366 6365 ] final -133.23 input    0.00 | X-H torsion
[ 27222 7925 7924 7923 ] final  -22.61 input   -0.00 | X-H torsion
[ 27224 7790 7789 7788 ] final   91.76 input   -0.00 | X-H torsion

> <Gold.Protein.ActiveResidues>
 ASP403  THR404  LEU406  ILE407  TYR408  ALA410  LYS411  TRP414  TRP426  SER427 
 LYS428  LEU429  GLN430  VAL431  PHE432  ASP433  TYR453  SER462  ALA463  ILE464 

> <Gold.Protein.RotatedAtoms>
  195.1909   -3.2223   37.3764 H   0  0  0  0  0  0  0  0  0  0  0  0  # atno 6595 bound_to 6557
  197.4623   -3.4605   40.2708 H   0  0  0  0  0  0  0  0  0  0  0  0  # atno 6682 bound_to 6637
  197.5179    0.9405   41.9416 H   0  0  0  0  0  0  0  0  0  0  0  0  # atno 6826 bound_to 6786
  197.9544   -0.4806   50.2180 H   0  0  0  0  0  0  0  0  0  0  0  0  # atno 7893 bound_to 7875
  197.3705   -4.2026   50.6349 H   0  0  0  0  0  0  0  0  0  0  0  0  # atno 7902 bound_to 7880
  195.1222   -1.6259   50.6453 H   0  0  0  0  0  0  0  0  0  0  0  0  # atno 7962 bound_to 7922
  192.0918   -3.0882   48.4672 H   0  0  0  0  0  0  0  0  0  0  0  0  # atno 8044 bound_to 8009
  190.9020   -2.4364   46.0343 H   0  0  0  0  0  0  0  0  0  0  0  0  # atno 8121 bound_to 8086
  188.7609   -3.2376   42.8763 H   0  0  0  0  0  0  0  0  0  0  0  0  # atno 8182 bound_to 8152
  188.7526   -1.6332   39.6346 H   0  0  0  0  0  0  0  0  0  0  0  0  # atno 8262 bound_to 8220
  188.1702   -3.3483   37.3129 H   0  0  0  0  0  0  0  0  0  0  0  0  # atno 8325 bound_to 8297
  186.5729   -4.5335   47.4525 H   0  0  0  0  0  0  0  0  0  0  0  0  # atno 9562 bound_to 9520
  188.6022    0.9044   43.5851 H   0  0  0  0  0  0  0  0  0  0  0  0  # atno 10204 bound_to 10169
  196.0760   -4.4124   36.1761 LP  0  0  0  0  0  0  0  0  0  0  0  0  # atno 27193 bound_to 6320
  194.9809   -5.4417   37.0371 LP  0  0  0  0  0  0  0  0  0  0  0  0  # atno 27194 bound_to 6320
  196.7322   -2.4666   37.6995 LP  0  0  0  0  0  0  0  0  0  0  0  0  # atno 27195 bound_to 6557
  196.1566   -1.8395   41.9529 LP  0  0  0  0  0  0  0  0  0  0  0  0  # atno 27196 bound_to 6560
  197.0678   -0.6519   41.0814 LP  0  0  0  0  0  0  0  0  0  0  0  0  # atno 27197 bound_to 6560
  197.7526   -2.4024   38.9064 LP  0  0  0  0  0  0  0  0  0  0  0  0  # atno 27198 bound_to 6637
  194.8529   -4.4489   48.6262 LP  0  0  0  0  0  0  0  0  0  0  0  0  # atno 27199 bound_to 7878
  196.1336   -3.9209   47.5866 LP  0  0  0  0  0  0  0  0  0  0  0  0  # atno 27200 bound_to 7878
  193.5366   -2.1471   48.1832 LP  0  0  0  0  0  0  0  0  0  0  0  0  # atno 27201 bound_to 8009
  191.5457   -3.7425   44.7372 LP  0  0  0  0  0  0  0  0  0  0  0  0  # atno 27202 bound_to 8012
  192.9441   -3.0185   45.4584 LP  0  0  0  0  0  0  0  0  0  0  0  0  # atno 27203 bound_to 8012
  189.4173   -1.6537   46.5291 LP  0  0  0  0  0  0  0  0  0  0  0  0  # atno 27204 bound_to 8086
  187.8971   -0.9811   42.9497 LP  0  0  0  0  0  0  0  0  0  0  0  0  # atno 27205 bound_to 8089
  188.9851   -0.4411   44.1845 LP  0  0  0  0  0  0  0  0  0  0  0  0  # atno 27206 bound_to 8089
  190.4678   -3.0148   43.1942 LP  0  0  0  0  0  0  0  0  0  0  0  0  # atno 27207 bound_to 8152
  189.5184   -4.5720   40.2188 LP  0  0  0  0  0  0  0  0  0  0  0  0  # atno 27208 bound_to 8155
  187.9591   -4.3589   39.4956 LP  0  0  0  0  0  0  0  0  0  0  0  0  # atno 27209 bound_to 8155
  187.5821   -1.9631   40.8864 LP  0  0  0  0  0  0  0  0  0  0  0  0  # atno 27210 bound_to 8220
  185.9513   -6.0334   47.3414 LP  0  0  0  0  0  0  0  0  0  0  0  0  # atno 27211 bound_to 9520
  185.7186   -5.1482   48.6937 LP  0  0  0  0  0  0  0  0  0  0  0  0  # atno 27212 bound_to 9520
  186.7863   -2.3317   36.9771 LP  0  0  0  0  0  0  0  0  0  0  0  0  # atno 27213 bound_to 8297
  188.2227   -1.0863   47.0275 LP  0  0  0  0  0  0  0  0  0  0  0  0  # atno 27214 bound_to 10086
  187.1270   -1.2470   48.3593 LP  0  0  0  0  0  0  0  0  0  0  0  0  # atno 27215 bound_to 10086
  186.9914    1.5504   43.8090 LP  0  0  0  0  0  0  0  0  0  0  0  0  # atno 27216 bound_to 10169
  188.5621    0.1767   40.7663 LP  0  0  0  0  0  0  0  0  0  0  0  0  # atno 27217 bound_to 10172
  186.8441    0.0223   40.6096 LP  0  0  0  0  0  0  0  0  0  0  0  0  # atno 27218 bound_to 10172
  195.4563   -2.6248   49.2478 LP  0  0  0  0  0  0  0  0  0  0  0  0  # atno 27219 bound_to 7922
  198.0359   -4.0966   38.0060 LP  0  0  0  0  0  0  0  0  0  0  0  0  # atno 27220 bound_to 6367
  198.6598   -5.5549   38.7016 LP  0  0  0  0  0  0  0  0  0  0  0  0  # atno 27221 bound_to 6367
  191.6921   -1.2313   50.8305 LP  0  0  0  0  0  0  0  0  0  0  0  0  # atno 27222 bound_to 7925
  191.5316   -0.4417   49.2972 LP  0  0  0  0  0  0  0  0  0  0  0  0  # atno 27223 bound_to 7925
  196.8142    0.4047   47.3437 LP  0  0  0  0  0  0  0  0  0  0  0  0  # atno 27224 bound_to 7790
  195.2148    0.2111   47.9797 LP  0  0  0  0  0  0  0  0  0  0  0  0  # atno 27225 bound_to 7790
  196.2302   -0.3553   50.0014 LP  0  0  0  0  0  0  0  0  0  0  0  0  # atno 27226 bound_to 7875
  197.8492   -2.7886   51.2836 LP  0  0  0  0  0  0  0  0  0  0  0  0  # atno 27227 bound_to 7880
  198.9470   -3.9511   50.9523 LP  0  0  0  0  0  0  0  0  0  0  0  0  # atno 27228 bound_to 7880

> <Gold.Score>
     Fitness  S(hb_ext) S(vdw_ext)  S(hb_int)    S(int)      intcor
     32.05       1.13      22.88       0.00      -0.55      -0.76

> <Gold.Goldscore.Fitness>
32.0452

> <Gold.Goldscore.Internal.Vdw>
-0.7341

> <Gold.Goldscore.Internal.Torsion>
-0.5756

> <Gold.Goldscore.External.Vdw>
22.8811

> <Gold.Goldscore.Internal.HBond>
0.0000

> <Gold.Goldscore.External.HBond>
1.1348

> <Gold.Goldscore.Internal.Correction>
-0.7585

> <Gold.Goldscore.Hbonds>
donor molecule, donor type, donor heavy atom, donor atom, acceptor molecule, acceptor atom, score
      L1  H     8    22       P1  7878  0.57

> <Gold.Goldscore.Internal.Vdw.Weighted>
-0.7341

> <Gold.Goldscore.Internal.Torsion.Weighted>
-0.5756

> <Gold.Goldscore.External.Vdw.Weighted>
31.4615

> <Gold.Goldscore.Internal.HBond.Weighted>
0.0000

> <Gold.Goldscore.External.HBond.Weighted>
1.1348

> <Gold.Goldscore.Internal.Correction.Weighted>
-0.7585

> <Gold.Rescore>
     Score     S(PLP)   S(hbond)     S(cho)   S(metal)  DE(clash)   DE(tors)     intcor
     33.70     -30.46       1.47       0.00       0.00       0.00       0.58       ----

> <Gold.PLP.Fitness>
33.6951

> <Gold.PLP.PLP>
-30.4572

> <Gold.PLP.part.hbond>
-1.7572

> <Gold.PLP.part.metal>
0.0000

> <Gold.PLP.part.buried>
-5.7200

> <Gold.PLP.part.nonpolar>
-25.5160

> <Gold.PLP.part.repulsive>
1.8808

> <Gold.PLP.ligand.clash>
0.0000

> <Gold.PLP.ligand.torsion>
0.5785

> <Gold.PLP.Chemscore.Hbond>
1.4650

> <Gold.PLP.Chemscore.CHOScore>
0.0000

> <Gold.PLP.Chemscore.Metal>
0.0000

> <Gold.Chemscore.Hbonds>
donor molecule, donor type, donor heavy atom, donor atom, acceptor molecule, acceptor atom, score
      L1  H     8    22       P1  7878  0.80

> <Gold.PLP.Chemscore.Internal.Correction>
   9.000000E+99

#       Name:                CT1002167954
#       Creating user name   hitesit
#       Creation time:       Sun Apr 16 22:58:04 2023


#       File generated by GOLD software.
#

@<TRIPOS>MOLECULE
CT1002167954|ligand_prepared|mol2|1|dock9
    29    30     1
SMALL
NO_CHARGES


@<TRIPOS>ATOM
      1 C1         192.5685  -6.7095  46.4860 C.3            1 RES1               0.0000
      2 C2         192.4814  -6.5008  44.9603 C.ar           1 RES1               0.0000
      3 C3         192.8560  -5.3383  47.0903 C.2            1 RES1               0.0000
      4 C4         191.2329  -7.3093  46.9114 C.2            1 RES1               0.0000
      5 C5         193.6892  -7.6826  46.9205 C.3            1 RES1               0.0000
      6 C6         193.5780  -6.7649  44.1452 C.ar           1 RES1               0.0000
      7 C7         191.3126  -6.0478  44.3543 C.ar           1 RES1               0.0000
      8 N8         191.8367  -4.7087  47.7418 N.am           1 RES1               0.0000
      9 O9         193.9490  -4.8003  46.9630 O.2            1 RES1               0.0000
     10 N10        190.4231  -6.5610  47.7252 N.am           1 RES1               0.0000
     11 O11        190.8670  -8.4162  46.5357 O.2            1 RES1               0.0000
     12 C12        193.6413  -8.0542  48.3942 C.3            1 RES1               0.0000
     13 C13        193.5079  -6.5857  42.7736 C.ar           1 RES1               0.0000
     14 C14        191.2446  -5.8691  42.9824 C.ar           1 RES1               0.0000
     15 C15        190.6510  -5.2755  48.1347 C.2            1 RES1               0.0000
     16 C16        192.3412  -6.1382  42.1913 C.ar           1 RES1               0.0000
     17 O17        189.8494  -4.6487  48.8215 O.2            1 RES1               0.0000
     18 H18        193.6125  -8.5991  46.3225 H              1 RES1               0.0000
     19 H19        194.6608  -7.2214  46.7041 H              1 RES1               0.0000
     20 H20        194.5054  -7.1155  44.5858 H              1 RES1               0.0000
     21 H21        190.4378  -5.8288  44.9570 H              1 RES1               0.0000
     22 H22        191.9682  -3.7254  47.9568 H              1 RES1               0.0000
     23 H23        189.5718  -7.0034  48.0565 H              1 RES1               0.0000
     24 H24        194.4489  -8.7384  48.6459 H              1 RES1               0.0000
     25 H25        193.7402  -7.1687  49.0187 H              1 RES1               0.0000
     26 H26        192.6982  -8.5382  48.6394 H              1 RES1               0.0000
     27 H27        194.3741  -6.7976  42.1555 H              1 RES1               0.0000
     28 H28        190.3245  -5.5161  42.5285 H              1 RES1               0.0000
     29 H29        192.2863  -5.9982  41.1168 H              1 RES1               0.0000
@<TRIPOS>BOND
    1    1    2 1     
    2    1    3 1     
    3    1    4 1     
    4    1    5 1     
    5    2    6 ar    
    6    2    7 ar    
    7    3    8 1     
    8    3    9 2     
    9    4   10 1     
   10    4   11 2     
   11    5   12 1     
   12    5   18 1     
   13    5   19 1     
   14    6   13 ar    
   15    6   20 1     
   16    7   14 ar    
   17    7   21 1     
   18    8   15 1     
   19    8   22 1     
   20   10   15 1     
   21   10   23 1     
   22   12   24 1     
   23   12   25 1     
   24   12   26 1     
   25   13   16 ar    
   26   13   27 1     
   27   14   16 ar    
   28   14   28 1     
   29   15   17 2     
   30   16   29 1     
@<TRIPOS>SUBSTRUCTURE
      1 RES1           1
@<TRIPOS>SET
DONOR_HYDROGENS      STATIC     ATOMS    <user>   **** ""
2 22 23
ATOM$RED        STATIC     ATOMS    COLORGROUP SYSTEM
2 22 23
@<TRIPOS>COMMENT
> <Gold.Version>
2022.3.0

> <Gold.Id.Protein>
unknown|4d1n_clean|pdb

> <Gold.Protein.RotatedTorsions>
[ 6595 6557 6558 6559 ] final -100.07 input  116.17 | X-H torsion
[ 6682 6637 6638 6639 ] final   -8.06 input  120.05 | X-H torsion
[ 8044 8009 8010 8011 ] final  179.89 input   40.01 | X-H torsion
[ 8121 8086 8087 8088 ] final  -87.06 input   93.99 | X-H torsion
[ 8182 8152 8153 8154 ] final  -53.26 input   75.44 | X-H torsion
[ 8262 8220 8221 8222 ] final  -44.33 input   81.29 | X-H torsion
[ 9562 9520 9519 9517 ] final  170.02 input   60.00 | X-H torsion
[ 8325 8297 8298 8299 ] final  -75.81 input   91.63 | X-H torsion
[ 10204 10169 10170 10171 ] final -177.87 input   34.07 | X-H torsion
[ 7962 7922 7923 7924 ] final   53.91 input   79.92 | X-H torsion
[ 7893 7875 7876 7877 ] final  -42.34 input   91.72 | X-H torsion
[ 7902 7880 7879 7876 ] final   94.25 input   60.02 | X-H torsion
[ 6826 6786 6787 6788 ] final  103.91 input  113.73 | X-H torsion
[ 27193 6320 6319 6318 ] final  122.10 input    0.00 | X-H torsion
[ 27196 6560 6559 6558 ] final   83.49 input    0.00 | X-H torsion
[ 27199 7878 7877 7876 ] final  -41.53 input    0.00 | X-H torsion
[ 27202 8012 8011 8010 ] final  143.46 input    0.00 | X-H torsion
[ 27205 8089 8088 8087 ] final   14.65 input   -0.00 | X-H torsion
[ 27208 8155 8154 8153 ] final   79.29 input   -0.00 | X-H torsion
[ 27214 10086 10085 10084 ] final   76.37 input    0.00 | X-H torsion
[ 27217 10172 10171 10170 ] final -138.03 input    0.00 | X-H torsion
[ 27220 6367 6366 6365 ] final  -66.77 input    0.00 | X-H torsion
[ 27222 7925 7924 7923 ] final -145.78 input   -0.00 | X-H torsion
[ 27224 7790 7789 7788 ] final  141.45 input   -0.00 | X-H torsion

> <Gold.Protein.ActiveResidues>
 ASP403  THR404  LEU406  ILE407  TYR408  ALA410  LYS411  TRP414  TRP426  SER427 
 LYS428  LEU429  GLN430  VAL431  PHE432  ASP433  TYR453  SER462  ALA463  ILE464 

> <Gold.Protein.RotatedAtoms>
  195.4544   -2.1254   37.4974 H   0  0  0  0  0  0  0  0  0  0  0  0  # atno 6595 bound_to 6557
  197.3596   -2.0710   39.5024 H   0  0  0  0  0  0  0  0  0  0  0  0  # atno 6682 bound_to 6637
  197.0400    0.2184   42.0363 H   0  0  0  0  0  0  0  0  0  0  0  0  # atno 6826 bound_to 6786
  196.2826   -0.2233   49.8419 H   0  0  0  0  0  0  0  0  0  0  0  0  # atno 7893 bound_to 7875
  197.6478   -4.4078   50.5876 H   0  0  0  0  0  0  0  0  0  0  0  0  # atno 7902 bound_to 7880
  194.9518   -1.3597   50.2112 H   0  0  0  0  0  0  0  0  0  0  0  0  # atno 7962 bound_to 7922
  193.0566   -1.9002   48.7926 H   0  0  0  0  0  0  0  0  0  0  0  0  # atno 8044 bound_to 8009
  190.9089   -2.3961   45.9975 H   0  0  0  0  0  0  0  0  0  0  0  0  # atno 8121 bound_to 8086
  188.7694   -2.8928   43.0499 H   0  0  0  0  0  0  0  0  0  0  0  0  # atno 8182 bound_to 8152
  188.8178   -2.0346   39.7277 H   0  0  0  0  0  0  0  0  0  0  0  0  # atno 8262 bound_to 8220
  187.2589   -1.9757   37.2566 H   0  0  0  0  0  0  0  0  0  0  0  0  # atno 8325 bound_to 8297
  185.6829   -6.0828   47.8645 H   0  0  0  0  0  0  0  0  0  0  0  0  # atno 9562 bound_to 9520
  188.1480    1.8282   44.2487 H   0  0  0  0  0  0  0  0  0  0  0  0  # atno 10204 bound_to 10169
  195.4408   -5.5236   37.2283 LP  0  0  0  0  0  0  0  0  0  0  0  0  # atno 27193 bound_to 6320
  195.6161   -4.3306   35.9849 LP  0  0  0  0  0  0  0  0  0  0  0  0  # atno 27194 bound_to 6320
  196.4741   -3.5411   37.5809 LP  0  0  0  0  0  0  0  0  0  0  0  0  # atno 27195 bound_to 6557
  196.4910   -1.9045   42.0661 LP  0  0  0  0  0  0  0  0  0  0  0  0  # atno 27196 bound_to 6560
  196.7333   -0.5869   40.9683 LP  0  0  0  0  0  0  0  0  0  0  0  0  # atno 27197 bound_to 6560
  197.8518   -3.7448   39.6488 LP  0  0  0  0  0  0  0  0  0  0  0  0  # atno 27198 bound_to 6637
  195.8608   -3.7627   47.4456 LP  0  0  0  0  0  0  0  0  0  0  0  0  # atno 27199 bound_to 7878
  195.1257   -4.6071   48.7672 LP  0  0  0  0  0  0  0  0  0  0  0  0  # atno 27200 bound_to 7878
  192.5943   -3.3074   47.8654 LP  0  0  0  0  0  0  0  0  0  0  0  0  # atno 27201 bound_to 8009
  191.6394   -3.9995   45.1112 LP  0  0  0  0  0  0  0  0  0  0  0  0  # atno 27202 bound_to 8012
  192.8505   -2.7615   45.0843 LP  0  0  0  0  0  0  0  0  0  0  0  0  # atno 27203 bound_to 8012
  189.4106   -1.6928   46.5648 LP  0  0  0  0  0  0  0  0  0  0  0  0  # atno 27204 bound_to 8086
  188.4548   -0.6636   44.4317 LP  0  0  0  0  0  0  0  0  0  0  0  0  # atno 27205 bound_to 8089
  188.4274   -0.7586   42.7025 LP  0  0  0  0  0  0  0  0  0  0  0  0  # atno 27206 bound_to 8089
  190.4596   -3.3481   43.0265 LP  0  0  0  0  0  0  0  0  0  0  0  0  # atno 27207 bound_to 8152
  188.3607   -4.6732   40.6081 LP  0  0  0  0  0  0  0  0  0  0  0  0  # atno 27208 bound_to 8155
  189.1169   -4.2577   39.1062 LP  0  0  0  0  0  0  0  0  0  0  0  0  # atno 27209 bound_to 8155
  187.5179   -1.5682   40.7948 LP  0  0  0  0  0  0  0  0  0  0  0  0  # atno 27210 bound_to 8220
  186.0060   -4.6477   48.5606 LP  0  0  0  0  0  0  0  0  0  0  0  0  # atno 27211 bound_to 9520
  186.5602   -4.9734   47.0595 LP  0  0  0  0  0  0  0  0  0  0  0  0  # atno 27212 bound_to 9520
  187.6693   -3.6617   37.0317 LP  0  0  0  0  0  0  0  0  0  0  0  0  # atno 27213 bound_to 8297
  186.8642   -1.2063   47.9955 LP  0  0  0  0  0  0  0  0  0  0  0  0  # atno 27214 bound_to 10086
  188.4855   -1.1270   47.3913 LP  0  0  0  0  0  0  0  0  0  0  0  0  # atno 27215 bound_to 10086
  187.4316    0.6551   43.1659 LP  0  0  0  0  0  0  0  0  0  0  0  0  # atno 27216 bound_to 10169
  187.8851    0.2474   39.8543 LP  0  0  0  0  0  0  0  0  0  0  0  0  # atno 27217 bound_to 10172
  187.5211   -0.0485   41.5216 LP  0  0  0  0  0  0  0  0  0  0  0  0  # atno 27218 bound_to 10172
  195.6215   -2.8827   49.6686 LP  0  0  0  0  0  0  0  0  0  0  0  0  # atno 27219 bound_to 7922
  197.4826   -4.7907   38.3425 LP  0  0  0  0  0  0  0  0  0  0  0  0  # atno 27220 bound_to 6367
  199.2131   -4.8608   38.3652 LP  0  0  0  0  0  0  0  0  0  0  0  0  # atno 27221 bound_to 6367
  190.9608   -0.9948   49.5152 LP  0  0  0  0  0  0  0  0  0  0  0  0  # atno 27222 bound_to 7925
  192.2629   -0.6783   50.6125 LP  0  0  0  0  0  0  0  0  0  0  0  0  # atno 27223 bound_to 7925
  196.5971   -0.2857   47.4202 LP  0  0  0  0  0  0  0  0  0  0  0  0  # atno 27224 bound_to 7790
  195.4320    0.9015   47.9033 LP  0  0  0  0  0  0  0  0  0  0  0  0  # atno 27225 bound_to 7790
  197.8949   -0.6115   50.3759 LP  0  0  0  0  0  0  0  0  0  0  0  0  # atno 27226 bound_to 7875
  197.5298   -2.9020   51.1941 LP  0  0  0  0  0  0  0  0  0  0  0  0  # atno 27227 bound_to 7880
  198.9873   -3.6311   51.0894 LP  0  0  0  0  0  0  0  0  0  0  0  0  # atno 27228 bound_to 7880

> <Gold.Score>
     Fitness  S(hb_ext) S(vdw_ext)  S(hb_int)    S(int)      intcor
     31.94       5.93      19.39       0.00      -0.66      -0.76

> <Gold.Goldscore.Fitness>
31.9361

> <Gold.Goldscore.Internal.Vdw>
-0.9257

> <Gold.Goldscore.Internal.Torsion>
-0.4872

> <Gold.Goldscore.External.Vdw>
19.3930

> <Gold.Goldscore.Internal.HBond>
0.0000

> <Gold.Goldscore.External.HBond>
5.9263

> <Gold.Goldscore.Internal.Correction>
-0.7573

> <Gold.Goldscore.Hbonds>
donor molecule, donor type, donor heavy atom, donor atom, acceptor molecule, acceptor atom, score
      L1  H     8    22       P1  8009  0.99

> <Gold.Goldscore.Internal.Vdw.Weighted>
-0.9257

> <Gold.Goldscore.Internal.Torsion.Weighted>
-0.4872

> <Gold.Goldscore.External.Vdw.Weighted>
26.6654

> <Gold.Goldscore.Internal.HBond.Weighted>
0.0000

> <Gold.Goldscore.External.HBond.Weighted>
5.9263

> <Gold.Goldscore.Internal.Correction.Weighted>
-0.7573

> <Gold.Rescore>
     Score     S(PLP)   S(hbond)     S(cho)   S(metal)  DE(clash)   DE(tors)     intcor
     28.94     -25.20       1.26       0.00       0.00       0.00       0.02       ----

> <Gold.PLP.Fitness>
28.9449

> <Gold.PLP.PLP>
-25.1979

> <Gold.PLP.part.hbond>
-3.6821

> <Gold.PLP.part.metal>
0.0000

> <Gold.PLP.part.buried>
-2.1730

> <Gold.PLP.part.nonpolar>
-20.5278

> <Gold.PLP.part.repulsive>
0.5053

> <Gold.PLP.ligand.clash>
0.0000

> <Gold.PLP.ligand.torsion>
0.0204

> <Gold.PLP.Chemscore.Hbond>
1.2626

> <Gold.PLP.Chemscore.CHOScore>
0.0000

> <Gold.PLP.Chemscore.Metal>
0.0000

> <Gold.Chemscore.Hbonds>
donor molecule, donor type, donor heavy atom, donor atom, acceptor molecule, acceptor atom, score
      L1  H     8    22       P1  8009  0.83

> <Gold.PLP.Chemscore.Internal.Correction>
   9.000000E+99

#       Name:                CT1002167954
#       Creating user name   hitesit
#       Creation time:       Sun Apr 16 22:58:02 2023


#       File generated by GOLD software.
#

@<TRIPOS>MOLECULE
CT1002167954|ligand_prepared|mol2|1|dock4
    29    30     1
SMALL
NO_CHARGES


@<TRIPOS>ATOM
      1 C1         191.5073  -6.2671  48.0073 C.3            1 RES1               0.0000
      2 C2         190.6058  -5.2969  48.7976 C.ar           1 RES1               0.0000
      3 C3         192.8978  -5.6391  47.9865 C.2            1 RES1               0.0000
      4 C4         191.4392  -7.6036  48.7378 C.2            1 RES1               0.0000
      5 C5         191.0500  -6.4964  46.5479 C.3            1 RES1               0.0000
      6 C6         190.7266  -5.1838  50.1794 C.ar           1 RES1               0.0000
      7 C7         189.6522  -4.5079  48.1597 C.ar           1 RES1               0.0000
      8 N8         193.8546  -6.1961  48.7827 N.am           1 RES1               0.0000
      9 O9         193.1404  -4.6461  47.3117 O.2            1 RES1               0.0000
     10 N10        192.5829  -8.0701  49.3311 N.am           1 RES1               0.0000
     11 O11        190.4013  -8.2490  48.8192 O.2            1 RES1               0.0000
     12 C12        191.8483  -7.5635  45.8157 C.3            1 RES1               0.0000
     13 C13        189.9253  -4.3114  50.8972 C.ar           1 RES1               0.0000
     14 C14        188.8518  -3.6363  48.8795 C.ar           1 RES1               0.0000
     15 C15        193.7799  -7.4123  49.4129 C.2            1 RES1               0.0000
     16 C16        188.9878  -3.5369  50.2479 C.ar           1 RES1               0.0000
     17 O17        194.7479  -7.8732  50.0110 O.2            1 RES1               0.0000
     18 H18        189.9921  -6.7867  46.5508 H              1 RES1               0.0000
     19 H19        191.1368  -5.5512  45.9980 H              1 RES1               0.0000
     20 H20        191.4571  -5.7871  50.7080 H              1 RES1               0.0000
     21 H21        189.5269  -4.5703  47.0841 H              1 RES1               0.0000
     22 H22        194.7043  -5.6587  48.9227 H              1 RES1               0.0000
     23 H23        192.5379  -8.9934  49.7505 H              1 RES1               0.0000
     24 H24        191.4868  -7.6845  44.7967 H              1 RES1               0.0000
     25 H25        192.9018  -7.2950  45.7719 H              1 RES1               0.0000
     26 H26        191.7639  -8.5232  46.3214 H              1 RES1               0.0000
     27 H27        190.0353  -4.2379  51.9742 H              1 RES1               0.0000
     28 H28        188.1148  -3.0291  48.3644 H              1 RES1               0.0000
     29 H29        188.3605  -2.8533  50.8103 H              1 RES1               0.0000
@<TRIPOS>BOND
    1    1    2 1     
    2    1    3 1     
    3    1    4 1     
    4    1    5 1     
    5    2    6 ar    
    6    2    7 ar    
    7    3    8 1     
    8    3    9 2     
    9    4   10 1     
   10    4   11 2     
   11    5   12 1     
   12    5   18 1     
   13    5   19 1     
   14    6   13 ar    
   15    6   20 1     
   16    7   14 ar    
   17    7   21 1     
   18    8   15 1     
   19    8   22 1     
   20   10   15 1     
   21   10   23 1     
   22   12   24 1     
   23   12   25 1     
   24   12   26 1     
   25   13   16 ar    
   26   13   27 1     
   27   14   16 ar    
   28   14   28 1     
   29   15   17 2     
   30   16   29 1     
@<TRIPOS>SUBSTRUCTURE
      1 RES1           1
@<TRIPOS>SET
DONOR_HYDROGENS      STATIC     ATOMS    <user>   **** ""
2 22 23
ATOM$RED        STATIC     ATOMS    COLORGROUP SYSTEM
2 22 23
@<TRIPOS>COMMENT
> <Gold.Version>
2022.3.0

> <Gold.Id.Protein>
unknown|4d1n_clean|pdb

> <Gold.Protein.RotatedTorsions>
[ 6595 6557 6558 6559 ] final   49.80 input  116.17 | X-H torsion
[ 6682 6637 6638 6639 ] final  -66.10 input  120.05 | X-H torsion
[ 8044 8009 8010 8011 ] final  -26.11 input   40.01 | X-H torsion
[ 8121 8086 8087 8088 ] final  124.91 input   93.99 | X-H torsion
[ 8182 8152 8153 8154 ] final -144.98 input   75.44 | X-H torsion
[ 8262 8220 8221 8222 ] final -124.46 input   81.29 | X-H torsion
[ 9562 9520 9519 9517 ] final  103.18 input   60.00 | X-H torsion
[ 8325 8297 8298 8299 ] final -148.07 input   91.63 | X-H torsion
[ 10204 10169 10170 10171 ] final  -27.93 input   34.07 | X-H torsion
[ 7962 7922 7923 7924 ] final  -52.78 input   79.92 | X-H torsion
[ 7893 7875 7876 7877 ] final -110.63 input   91.72 | X-H torsion
[ 7902 7880 7879 7876 ] final   63.14 input   60.02 | X-H torsion
[ 6826 6786 6787 6788 ] final  135.07 input  113.73 | X-H torsion
[ 27193 6320 6319 6318 ] final   46.19 input    0.00 | X-H torsion
[ 27196 6560 6559 6558 ] final  -70.38 input    0.00 | X-H torsion
[ 27199 7878 7877 7876 ] final   34.49 input    0.00 | X-H torsion
[ 27202 8012 8011 8010 ] final  114.75 input    0.00 | X-H torsion
[ 27205 8089 8088 8087 ] final   28.06 input   -0.00 | X-H torsion
[ 27208 8155 8154 8153 ] final -123.22 input   -0.00 | X-H torsion
[ 27214 10086 10085 10084 ] final  -82.63 input    0.00 | X-H torsion
[ 27217 10172 10171 10170 ] final -120.65 input    0.00 | X-H torsion
[ 27220 6367 6366 6365 ] final -131.39 input    0.00 | X-H torsion
[ 27222 7925 7924 7923 ] final  -32.59 input   -0.00 | X-H torsion
[ 27224 7790 7789 7788 ] final  135.85 input   -0.00 | X-H torsion

> <Gold.Protein.ActiveResidues>
 ASP403  THR404  LEU406  ILE407  TYR408  ALA410  LYS411  TRP414  TRP426  SER427 
 LYS428  LEU429  GLN430  VAL431  PHE432  ASP433  TYR453  SER462  ALA463  ILE464 

> <Gold.Protein.RotatedAtoms>
  196.7661   -3.2015   37.6572 H   0  0  0  0  0  0  0  0  0  0  0  0  # atno 6595 bound_to 6557
  197.1514   -2.5079   40.2180 H   0  0  0  0  0  0  0  0  0  0  0  0  # atno 6682 bound_to 6637
  196.5908    0.1290   42.1559 H   0  0  0  0  0  0  0  0  0  0  0  0  # atno 6826 bound_to 6786
  197.0986    0.0670   49.3836 H   0  0  0  0  0  0  0  0  0  0  0  0  # atno 7893 bound_to 7875
  197.2744   -4.0825   50.6715 H   0  0  0  0  0  0  0  0  0  0  0  0  # atno 7902 bound_to 7880
  195.1970   -2.1534   49.0523 H   0  0  0  0  0  0  0  0  0  0  0  0  # atno 7962 bound_to 7922
  192.2926   -3.2889   48.1174 H   0  0  0  0  0  0  0  0  0  0  0  0  # atno 8044 bound_to 8009
  189.4485   -2.0946   46.8296 H   0  0  0  0  0  0  0  0  0  0  0  0  # atno 8121 bound_to 8086
  189.8671   -2.3625   43.4320 H   0  0  0  0  0  0  0  0  0  0  0  0  # atno 8182 bound_to 8152
  188.2583   -2.6411   40.5036 H   0  0  0  0  0  0  0  0  0  0  0  0  # atno 8262 bound_to 8220
  188.1570   -2.4360   37.5390 H   0  0  0  0  0  0  0  0  0  0  0  0  # atno 8325 bound_to 8297
  185.6324   -5.3975   48.6336 H   0  0  0  0  0  0  0  0  0  0  0  0  # atno 9562 bound_to 9520
  187.0715    0.9096   43.2775 H   0  0  0  0  0  0  0  0  0  0  0  0  # atno 10204 bound_to 10169
  194.6811   -5.1062   36.6089 LP  0  0  0  0  0  0  0  0  0  0  0  0  # atno 27193 bound_to 6320
  196.3757   -4.7480   36.6043 LP  0  0  0  0  0  0  0  0  0  0  0  0  # atno 27194 bound_to 6320
  195.1893   -2.4871   37.4244 LP  0  0  0  0  0  0  0  0  0  0  0  0  # atno 27195 bound_to 6557
  196.3465   -0.6450   40.9528 LP  0  0  0  0  0  0  0  0  0  0  0  0  # atno 27196 bound_to 6560
  196.8779   -1.8464   42.0816 LP  0  0  0  0  0  0  0  0  0  0  0  0  # atno 27197 bound_to 6560
  198.0529   -3.3227   38.9575 LP  0  0  0  0  0  0  0  0  0  0  0  0  # atno 27198 bound_to 6637
  196.3320   -4.3921   48.1662 LP  0  0  0  0  0  0  0  0  0  0  0  0  # atno 27199 bound_to 7878
  194.6545   -3.9776   48.0466 LP  0  0  0  0  0  0  0  0  0  0  0  0  # atno 27200 bound_to 7878
  193.3405   -1.9511   48.5248 LP  0  0  0  0  0  0  0  0  0  0  0  0  # atno 27201 bound_to 8009
  191.8819   -4.0803   45.4562 LP  0  0  0  0  0  0  0  0  0  0  0  0  # atno 27202 bound_to 8012
  192.6080   -2.6807   44.7393 LP  0  0  0  0  0  0  0  0  0  0  0  0  # atno 27203 bound_to 8012
  190.8271   -1.9852   45.7577 LP  0  0  0  0  0  0  0  0  0  0  0  0  # atno 27204 bound_to 8086
  188.6382   -0.5841   44.4008 LP  0  0  0  0  0  0  0  0  0  0  0  0  # atno 27205 bound_to 8089
  188.2440   -0.8381   42.7334 LP  0  0  0  0  0  0  0  0  0  0  0  0  # atno 27206 bound_to 8089
  189.3987   -3.8607   42.6571 LP  0  0  0  0  0  0  0  0  0  0  0  0  # atno 27207 bound_to 8152
  188.7898   -4.2326   39.0246 LP  0  0  0  0  0  0  0  0  0  0  0  0  # atno 27208 bound_to 8155
  188.6878   -4.6983   40.6897 LP  0  0  0  0  0  0  0  0  0  0  0  0  # atno 27209 bound_to 8155
  188.0684   -0.9716   40.0315 LP  0  0  0  0  0  0  0  0  0  0  0  0  # atno 27210 bound_to 8220
  186.5189   -4.4129   47.6886 LP  0  0  0  0  0  0  0  0  0  0  0  0  # atno 27211 bound_to 9520
  186.0982   -5.8985   47.1569 LP  0  0  0  0  0  0  0  0  0  0  0  0  # atno 27212 bound_to 9520
  186.7991   -3.2157   36.7581 LP  0  0  0  0  0  0  0  0  0  0  0  0  # atno 27213 bound_to 8297
  188.5408   -1.1625   47.7000 LP  0  0  0  0  0  0  0  0  0  0  0  0  # atno 27214 bound_to 10086
  186.8089   -1.1708   47.6868 LP  0  0  0  0  0  0  0  0  0  0  0  0  # atno 27215 bound_to 10086
  188.4749    1.5453   44.1072 LP  0  0  0  0  0  0  0  0  0  0  0  0  # atno 27216 bound_to 10169
  188.1283    0.2579   39.9503 LP  0  0  0  0  0  0  0  0  0  0  0  0  # atno 27217 bound_to 10172
  187.2779   -0.0589   41.4256 LP  0  0  0  0  0  0  0  0  0  0  0  0  # atno 27218 bound_to 10172
  195.3838   -2.1135   50.7919 LP  0  0  0  0  0  0  0  0  0  0  0  0  # atno 27219 bound_to 7922
  198.0101   -4.1059   38.0107 LP  0  0  0  0  0  0  0  0  0  0  0  0  # atno 27220 bound_to 6367
  198.6856   -5.5456   38.6970 LP  0  0  0  0  0  0  0  0  0  0  0  0  # atno 27221 bound_to 6367
  191.5651   -1.3028   50.7921 LP  0  0  0  0  0  0  0  0  0  0  0  0  # atno 27222 bound_to 7925
  191.6586   -0.3702   49.3356 LP  0  0  0  0  0  0  0  0  0  0  0  0  # atno 27223 bound_to 7925
  196.6484   -0.2213   47.4006 LP  0  0  0  0  0  0  0  0  0  0  0  0  # atno 27224 bound_to 7790
  195.3807    0.8371   47.9228 LP  0  0  0  0  0  0  0  0  0  0  0  0  # atno 27225 bound_to 7790
  197.0823   -0.9006   50.8323 LP  0  0  0  0  0  0  0  0  0  0  0  0  # atno 27226 bound_to 7875
  198.0056   -2.7760   51.3098 LP  0  0  0  0  0  0  0  0  0  0  0  0  # atno 27227 bound_to 7880
  198.8873   -4.0846   50.8893 LP  0  0  0  0  0  0  0  0  0  0  0  0  # atno 27228 bound_to 7880

> <Gold.Score>
     Fitness  S(hb_ext) S(vdw_ext)  S(hb_int)    S(int)      intcor
     31.23       0.47      22.38       0.00      -0.02      -0.76

> <Gold.Goldscore.Fitness>
31.2327

> <Gold.Goldscore.Internal.Vdw>
-0.3472

> <Gold.Goldscore.Internal.Torsion>
-0.4268

> <Gold.Goldscore.External.Vdw>
22.3832

> <Gold.Goldscore.Internal.HBond>
0.0000

> <Gold.Goldscore.External.HBond>
0.4725

> <Gold.Goldscore.Internal.Correction>
-0.7573

> <Gold.Goldscore.Hbonds>
donor molecule, donor type, donor heavy atom, donor atom, acceptor molecule, acceptor atom, score
      P1  H  8009  8044       L1     9  0.02
      L1  H     8    22       P1  7878  0.21

> <Gold.Goldscore.Internal.Vdw.Weighted>
-0.3472

> <Gold.Goldscore.Internal.Torsion.Weighted>
-0.4268

> <Gold.Goldscore.External.Vdw.Weighted>
30.7770

> <Gold.Goldscore.Internal.HBond.Weighted>
0.0000

> <Gold.Goldscore.External.HBond.Weighted>
0.4725

> <Gold.Goldscore.Internal.Correction.Weighted>
-0.7573

> <Gold.Rescore>
     Score     S(PLP)   S(hbond)     S(cho)   S(metal)  DE(clash)   DE(tors)     intcor
     33.17     -29.00       1.68       0.00       0.00       0.00       0.43       ----

> <Gold.PLP.Fitness>
33.1749

> <Gold.PLP.PLP>
-29.0030

> <Gold.PLP.part.hbond>
-2.2359

> <Gold.PLP.part.metal>
0.0000

> <Gold.PLP.part.buried>
-5.2581

> <Gold.PLP.part.nonpolar>
-24.9695

> <Gold.PLP.part.repulsive>
2.4280

> <Gold.PLP.ligand.clash>
0.0000

> <Gold.PLP.ligand.torsion>
0.4307

> <Gold.PLP.Chemscore.Hbond>
1.6778

> <Gold.PLP.Chemscore.CHOScore>
0.0000

> <Gold.PLP.Chemscore.Metal>
0.0000

> <Gold.Chemscore.Hbonds>
donor molecule, donor type, donor heavy atom, donor atom, acceptor molecule, acceptor atom, score
      L1  H     8    22       P1  7878  0.77
      P1  H  8009  8044       L1     9  0.46

> <Gold.PLP.Chemscore.Internal.Correction>
   9.000000E+99

#       Name:                CT1002167954
#       Creating user name   hitesit
#       Creation time:       Sun Apr 16 22:58:03 2023


#       File generated by GOLD software.
#

@<TRIPOS>MOLECULE
CT1002167954|ligand_prepared|mol2|1|dock6
    29    30     1
SMALL
NO_CHARGES


@<TRIPOS>ATOM
      1 C1         190.8293  -6.6814  48.5598 C.3            1 RES1               0.0000
      2 C2         190.0446  -5.4381  49.0256 C.ar           1 RES1               0.0000
      3 C3         190.3601  -6.9763  47.1381 C.2            1 RES1               0.0000
      4 C4         192.3062  -6.3178  48.6646 C.2            1 RES1               0.0000
      5 C5         190.5836  -7.9370  49.4285 C.3            1 RES1               0.0000
      6 C6         189.8615  -4.3546  48.1716 C.ar           1 RES1               0.0000
      7 C7         189.4966  -5.3611  50.3033 C.ar           1 RES1               0.0000
      8 N8         191.2129  -6.6777  46.1166 N.am           1 RES1               0.0000
      9 O9         189.2435  -7.4272  46.9143 O.2            1 RES1               0.0000
     10 N10        193.0325  -6.2411  47.5052 N.am           1 RES1               0.0000
     11 O11        192.8437  -6.0806  49.7394 O.2            1 RES1               0.0000
     12 C12        191.1516  -9.2155  48.8327 C.3            1 RES1               0.0000
     13 C13        189.1537  -3.2360  48.5789 C.ar           1 RES1               0.0000
     14 C14        188.7893  -4.2413  50.7087 C.ar           1 RES1               0.0000
     15 C15        192.5456  -6.3745  46.2334 C.2            1 RES1               0.0000
     16 C16        188.6168  -3.1787  49.8474 C.ar           1 RES1               0.0000
     17 O17        193.2509  -6.2378  45.2379 O.2            1 RES1               0.0000
     18 H18        191.0341  -7.7770  50.4158 H              1 RES1               0.0000
     19 H19        189.5030  -8.0630  49.5694 H              1 RES1               0.0000
     20 H20        190.2788  -4.3806  47.1705 H              1 RES1               0.0000
     21 H21        189.6206  -6.1847  50.9982 H              1 RES1               0.0000
     22 H22        190.8237  -6.6799  45.1791 H              1 RES1               0.0000
     23 H23        194.0285  -6.0688  47.5988 H              1 RES1               0.0000
     24 H24        190.9516 -10.0656  49.4817 H              1 RES1               0.0000
     25 H25        190.7068  -9.4191  47.8609 H              1 RES1               0.0000
     26 H26        192.2288  -9.1349  48.7022 H              1 RES1               0.0000
     27 H27        189.0219  -2.4018  47.8978 H              1 RES1               0.0000
     28 H28        188.3690  -4.2003  51.7082 H              1 RES1               0.0000
     29 H29        188.0620  -2.3024  50.1662 H              1 RES1               0.0000
@<TRIPOS>BOND
    1    1    2 1     
    2    1    3 1     
    3    1    4 1     
    4    1    5 1     
    5    2    6 ar    
    6    2    7 ar    
    7    3    8 1     
    8    3    9 2     
    9    4   10 1     
   10    4   11 2     
   11    5   12 1     
   12    5   18 1     
   13    5   19 1     
   14    6   13 ar    
   15    6   20 1     
   16    7   14 ar    
   17    7   21 1     
   18    8   15 1     
   19    8   22 1     
   20   10   15 1     
   21   10   23 1     
   22   12   24 1     
   23   12   25 1     
   24   12   26 1     
   25   13   16 ar    
   26   13   27 1     
   27   14   16 ar    
   28   14   28 1     
   29   15   17 2     
   30   16   29 1     
@<TRIPOS>SUBSTRUCTURE
      1 RES1           1
@<TRIPOS>SET
DONOR_HYDROGENS      STATIC     ATOMS    <user>   **** ""
2 22 23
ATOM$RED        STATIC     ATOMS    COLORGROUP SYSTEM
2 22 23
@<TRIPOS>COMMENT
> <Gold.Version>
2022.3.0

> <Gold.Id.Protein>
unknown|4d1n_clean|pdb

> <Gold.Protein.RotatedTorsions>
[ 6595 6557 6558 6559 ] final  168.30 input  116.17 | X-H torsion
[ 6682 6637 6638 6639 ] final  128.85 input  120.05 | X-H torsion
[ 8044 8009 8010 8011 ] final  -14.53 input   40.01 | X-H torsion
[ 8121 8086 8087 8088 ] final  -40.08 input   93.99 | X-H torsion
[ 8182 8152 8153 8154 ] final -144.69 input   75.44 | X-H torsion
[ 8262 8220 8221 8222 ] final   14.85 input   81.29 | X-H torsion
[ 9562 9520 9519 9517 ] final    7.33 input   60.00 | X-H torsion
[ 8325 8297 8298 8299 ] final -158.56 input   91.63 | X-H torsion
[ 10204 10169 10170 10171 ] final   87.69 input   34.07 | X-H torsion
[ 7962 7922 7923 7924 ] final  160.49 input   79.92 | X-H torsion
[ 7893 7875 7876 7877 ] final   91.87 input   91.72 | X-H torsion
[ 7902 7880 7879 7876 ] final  -21.55 input   60.02 | X-H torsion
[ 6826 6786 6787 6788 ] final -141.19 input  113.73 | X-H torsion
[ 27193 6320 6319 6318 ] final -159.13 input    0.00 | X-H torsion
[ 27196 6560 6559 6558 ] final   75.76 input    0.00 | X-H torsion
[ 27199 7878 7877 7876 ] final  119.76 input    0.00 | X-H torsion
[ 27202 8012 8011 8010 ] final   72.44 input    0.00 | X-H torsion
[ 27205 8089 8088 8087 ] final   24.43 input   -0.00 | X-H torsion
[ 27208 8155 8154 8153 ] final   26.85 input   -0.00 | X-H torsion
[ 27214 10086 10085 10084 ] final  138.26 input    0.00 | X-H torsion
[ 27217 10172 10171 10170 ] final -145.81 input    0.00 | X-H torsion
[ 27220 6367 6366 6365 ] final -107.07 input    0.00 | X-H torsion
[ 27222 7925 7924 7923 ] final  160.51 input   -0.00 | X-H torsion
[ 27224 7790 7789 7788 ] final -123.35 input   -0.00 | X-H torsion

> <Gold.Protein.ActiveResidues>
 ASP403  THR404  LEU406  ILE407  TYR408  ALA410  LYS411  TRP414  TRP426  SER427 
 LYS428  LEU429  GLN430  VAL431  PHE432  ASP433  TYR453  SER462  ALA463  ILE464 

> <Gold.Protein.RotatedAtoms>
  195.2845   -3.3742   37.3827 H   0  0  0  0  0  0  0  0  0  0  0  0  # atno 6595 bound_to 6557
  198.0760   -3.5075   39.0939 H   0  0  0  0  0  0  0  0  0  0  0  0  # atno 6682 bound_to 6637
  195.8225    0.9820   42.4130 H   0  0  0  0  0  0  0  0  0  0  0  0  # atno 6826 bound_to 6786
  197.4171   -0.8496   50.7943 H   0  0  0  0  0  0  0  0  0  0  0  0  # atno 7893 bound_to 7875
  197.4784   -2.9410   51.1687 H   0  0  0  0  0  0  0  0  0  0  0  0  # atno 7902 bound_to 7880
  195.5615   -2.5652   50.6639 H   0  0  0  0  0  0  0  0  0  0  0  0  # atno 7962 bound_to 7922
  192.4130   -3.3209   47.9900 H   0  0  0  0  0  0  0  0  0  0  0  0  # atno 8044 bound_to 8009
  190.7309   -1.8003   45.6589 H   0  0  0  0  0  0  0  0  0  0  0  0  # atno 8121 bound_to 8086
  189.8628   -2.3613   43.4321 H   0  0  0  0  0  0  0  0  0  0  0  0  # atno 8182 bound_to 8152
  188.5145   -1.2208   39.7041 H   0  0  0  0  0  0  0  0  0  0  0  0  # atno 8262 bound_to 8220
  188.2260   -2.5829   37.5323 H   0  0  0  0  0  0  0  0  0  0  0  0  # atno 8325 bound_to 8297
  186.3669   -4.3725   48.0489 H   0  0  0  0  0  0  0  0  0  0  0  0  # atno 9562 bound_to 9520
  188.5545    0.8298   43.5143 H   0  0  0  0  0  0  0  0  0  0  0  0  # atno 10204 bound_to 10169
  196.3466   -5.0090   36.8784 LP  0  0  0  0  0  0  0  0  0  0  0  0  # atno 27193 bound_to 6320
  194.7103   -4.8451   36.3348 LP  0  0  0  0  0  0  0  0  0  0  0  0  # atno 27194 bound_to 6320
  196.6405   -2.3179   37.6933 LP  0  0  0  0  0  0  0  0  0  0  0  0  # atno 27195 bound_to 6557
  196.3778   -1.8958   42.0392 LP  0  0  0  0  0  0  0  0  0  0  0  0  # atno 27196 bound_to 6560
  196.8465   -0.5957   40.9952 LP  0  0  0  0  0  0  0  0  0  0  0  0  # atno 27197 bound_to 6560
  197.1596   -2.3570   40.0434 LP  0  0  0  0  0  0  0  0  0  0  0  0  # atno 27198 bound_to 6637
  195.3930   -4.6870   48.8049 LP  0  0  0  0  0  0  0  0  0  0  0  0  # atno 27199 bound_to 7878
  195.5935   -3.6828   47.4079 LP  0  0  0  0  0  0  0  0  0  0  0  0  # atno 27200 bound_to 7878
  193.2229   -1.9198   48.6493 LP  0  0  0  0  0  0  0  0  0  0  0  0  # atno 27201 bound_to 8009
  192.3788   -3.8907   45.7847 LP  0  0  0  0  0  0  0  0  0  0  0  0  # atno 27202 bound_to 8012
  192.1110   -2.8703   44.4109 LP  0  0  0  0  0  0  0  0  0  0  0  0  # atno 27203 bound_to 8012
  189.5833   -2.2707   46.8931 LP  0  0  0  0  0  0  0  0  0  0  0  0  # atno 27204 bound_to 8086
  188.5891   -0.6051   44.4138 LP  0  0  0  0  0  0  0  0  0  0  0  0  # atno 27205 bound_to 8089
  188.2931   -0.8171   42.7204 LP  0  0  0  0  0  0  0  0  0  0  0  0  # atno 27206 bound_to 8089
  189.4028   -3.8619   42.6570 LP  0  0  0  0  0  0  0  0  0  0  0  0  # atno 27207 bound_to 8152
  189.1258   -4.6768   40.6025 LP  0  0  0  0  0  0  0  0  0  0  0  0  # atno 27208 bound_to 8155
  188.3517   -4.2541   39.1118 LP  0  0  0  0  0  0  0  0  0  0  0  0  # atno 27209 bound_to 8155
  187.8163   -2.3688   40.8180 LP  0  0  0  0  0  0  0  0  0  0  0  0  # atno 27210 bound_to 8220
  186.3065   -5.6077   46.9911 LP  0  0  0  0  0  0  0  0  0  0  0  0  # atno 27211 bound_to 9520
  185.5708   -5.7360   48.4433 LP  0  0  0  0  0  0  0  0  0  0  0  0  # atno 27212 bound_to 9520
  186.7323   -3.0734   36.7645 LP  0  0  0  0  0  0  0  0  0  0  0  0  # atno 27213 bound_to 8297
  187.0242   -1.1045   47.1253 LP  0  0  0  0  0  0  0  0  0  0  0  0  # atno 27214 bound_to 10086
  188.3255   -1.2288   48.2615 LP  0  0  0  0  0  0  0  0  0  0  0  0  # atno 27215 bound_to 10086
  187.0376    1.6227   43.8777 LP  0  0  0  0  0  0  0  0  0  0  0  0  # atno 27216 bound_to 10169
  187.7695    0.2383   39.8357 LP  0  0  0  0  0  0  0  0  0  0  0  0  # atno 27217 bound_to 10172
  187.6368   -0.0393   41.5402 LP  0  0  0  0  0  0  0  0  0  0  0  0  # atno 27218 bound_to 10172
  195.0306   -1.7143   49.2298 LP  0  0  0  0  0  0  0  0  0  0  0  0  # atno 27219 bound_to 7922
  197.7117   -4.2944   38.1030 LP  0  0  0  0  0  0  0  0  0  0  0  0  # atno 27220 bound_to 6367
  198.9840   -5.3571   38.6047 LP  0  0  0  0  0  0  0  0  0  0  0  0  # atno 27221 bound_to 6367
  191.4923   -0.4666   49.2900 LP  0  0  0  0  0  0  0  0  0  0  0  0  # atno 27222 bound_to 7925
  191.7314   -1.2064   50.8377 LP  0  0  0  0  0  0  0  0  0  0  0  0  # atno 27223 bound_to 7925
  195.4096   -0.2663   47.8949 LP  0  0  0  0  0  0  0  0  0  0  0  0  # atno 27224 bound_to 7790
  196.6195    0.8821   47.4286 LP  0  0  0  0  0  0  0  0  0  0  0  0  # atno 27225 bound_to 7790
  196.7653    0.0122   49.4275 LP  0  0  0  0  0  0  0  0  0  0  0  0  # atno 27226 bound_to 7875
  198.9799   -3.5671   51.1148 LP  0  0  0  0  0  0  0  0  0  0  0  0  # atno 27227 bound_to 7880
  197.7077   -4.4425   50.5838 LP  0  0  0  0  0  0  0  0  0  0  0  0  # atno 27228 bound_to 7880

> <Gold.Score>
     Fitness  S(hb_ext) S(vdw_ext)  S(hb_int)    S(int)      intcor
     30.61       2.09      20.85       0.00      -0.16      -0.76

> <Gold.Goldscore.Fitness>
30.6056

> <Gold.Goldscore.Internal.Vdw>
-0.3715

> <Gold.Goldscore.Internal.Torsion>
-0.5412

> <Gold.Goldscore.External.Vdw>
20.8510

> <Gold.Goldscore.Internal.HBond>
0.0000

> <Gold.Goldscore.External.HBond>
2.0908

> <Gold.Goldscore.Internal.Correction>
-0.7573

> <Gold.Goldscore.Hbonds>
donor molecule, donor type, donor heavy atom, donor atom, acceptor molecule, acceptor atom, score
      P1  H  6794  6837       L1    17  0.35

> <Gold.Goldscore.Internal.Vdw.Weighted>
-0.3715

> <Gold.Goldscore.Internal.Torsion.Weighted>
-0.5412

> <Gold.Goldscore.External.Vdw.Weighted>
28.6702

> <Gold.Goldscore.Internal.HBond.Weighted>
0.0000

> <Gold.Goldscore.External.HBond.Weighted>
2.0908

> <Gold.Goldscore.Internal.Correction.Weighted>
-0.7573

> <Gold.Rescore>
     Score     S(PLP)   S(hbond)     S(cho)   S(metal)  DE(clash)   DE(tors)     intcor
     29.26     -27.68       0.90       0.00       0.00       0.00       0.56       ----

> <Gold.PLP.Fitness>
29.2637

> <Gold.PLP.PLP>
-27.6763

> <Gold.PLP.part.hbond>
-2.0000

> <Gold.PLP.part.metal>
0.0000

> <Gold.PLP.part.buried>
-5.5743

> <Gold.PLP.part.nonpolar>
-21.8315

> <Gold.PLP.part.repulsive>
0.3255

> <Gold.PLP.ligand.clash>
0.0000

> <Gold.PLP.ligand.torsion>
0.5624

> <Gold.PLP.Chemscore.Hbond>
0.9040

> <Gold.PLP.Chemscore.CHOScore>
0.0000

> <Gold.PLP.Chemscore.Metal>
0.0000

> <Gold.Chemscore.Hbonds>
donor molecule, donor type, donor heavy atom, donor atom, acceptor molecule, acceptor atom, score
      P1  H  6794  6837       L1    17  1.00

> <Gold.PLP.Chemscore.Internal.Correction>
   9.000000E+99

#       Name:                CT1002167954
#       Creating user name   hitesit
#       Creation time:       Sun Apr 16 22:58:00 2023


#       File generated by GOLD software.
#

@<TRIPOS>MOLECULE
CT1002167954|ligand_prepared|mol2|1|dock1
    29    30     1
SMALL
NO_CHARGES


@<TRIPOS>ATOM
      1 C1         190.4248  -6.1198  49.1006 C.3            1 RES1               0.0000
      2 C2         189.7494  -4.9466  49.8396 C.ar           1 RES1               0.0000
      3 C3         189.9328  -6.0574  47.6576 C.2            1 RES1               0.0000
      4 C4         191.9275  -5.9128  49.2551 C.2            1 RES1               0.0000
      5 C5         190.0720  -7.5095  49.6802 C.3            1 RES1               0.0000
      6 C6         189.6619  -3.6912  49.2455 C.ar           1 RES1               0.0000
      7 C7         189.2077  -5.1048  51.1125 C.ar           1 RES1               0.0000
      8 N8         190.8086  -5.6158  46.7100 N.am           1 RES1               0.0000
      9 O9         188.7818  -6.3534  47.3616 O.2            1 RES1               0.0000
     10 N10        192.6583  -5.6464  48.1269 N.am           1 RES1               0.0000
     11 O11        192.4827  -5.9615  50.3458 O.2            1 RES1               0.0000
     12 C12        190.5426  -8.6706  48.8186 C.3            1 RES1               0.0000
     13 C13        189.0524  -2.6329  49.8989 C.ar           1 RES1               0.0000
     14 C14        188.5988  -4.0451  51.7642 C.ar           1 RES1               0.0000
     15 C15        192.1624  -5.4581  46.8656 C.2            1 RES1               0.0000
     16 C16        188.5201  -2.8092  51.1584 C.ar           1 RES1               0.0000
     17 O17        192.8772  -5.1672  45.9109 O.2            1 RES1               0.0000
     18 H18        190.5241  -7.6022  50.6753 H              1 RES1               0.0000
     19 H19        188.9835  -7.5765  49.7989 H              1 RES1               0.0000
     20 H20        190.0773  -3.5328  48.2559 H              1 RES1               0.0000
     21 H21        189.2590  -6.0679  51.6089 H              1 RES1               0.0000
     22 H22        190.4211  -5.3809  45.8017 H              1 RES1               0.0000
     23 H23        193.6653  -5.5827  48.2376 H              1 RES1               0.0000
     24 H24        190.2695  -9.6218  49.2706 H              1 RES1               0.0000
     25 H25        190.0924  -8.6240  47.8291 H              1 RES1               0.0000
     26 H26        191.6240  -8.6496  48.7003 H              1 RES1               0.0000
     27 H27        188.9943  -1.6619  49.4183 H              1 RES1               0.0000
     28 H28        188.1818  -4.1883  52.7556 H              1 RES1               0.0000
     29 H29        188.0424  -1.9802  51.6698 H              1 RES1               0.0000
@<TRIPOS>BOND
    1    1    2 1     
    2    1    3 1     
    3    1    4 1     
    4    1    5 1     
    5    2    6 ar    
    6    2    7 ar    
    7    3    8 1     
    8    3    9 2     
    9    4   10 1     
   10    4   11 2     
   11    5   12 1     
   12    5   18 1     
   13    5   19 1     
   14    6   13 ar    
   15    6   20 1     
   16    7   14 ar    
   17    7   21 1     
   18    8   15 1     
   19    8   22 1     
   20   10   15 1     
   21   10   23 1     
   22   12   24 1     
   23   12   25 1     
   24   12   26 1     
   25   13   16 ar    
   26   13   27 1     
   27   14   16 ar    
   28   14   28 1     
   29   15   17 2     
   30   16   29 1     
@<TRIPOS>SUBSTRUCTURE
      1 RES1           1
@<TRIPOS>SET
DONOR_HYDROGENS      STATIC     ATOMS    <user>   **** ""
2 22 23
ATOM$RED        STATIC     ATOMS    COLORGROUP SYSTEM
2 22 23
@<TRIPOS>COMMENT
> <Gold.Version>
2022.3.0

> <Gold.Id.Protein>
unknown|4d1n_clean|pdb

> <Gold.Protein.RotatedTorsions>
[ 6595 6557 6558 6559 ] final -119.93 input  116.17 | X-H torsion
[ 6682 6637 6638 6639 ] final   73.33 input  120.05 | X-H torsion
[ 8044 8009 8010 8011 ] final -153.92 input   40.01 | X-H torsion
[ 8121 8086 8087 8088 ] final  -28.30 input   93.99 | X-H torsion
[ 8182 8152 8153 8154 ] final   70.49 input   75.44 | X-H torsion
[ 8262 8220 8221 8222 ] final  112.18 input   81.29 | X-H torsion
[ 9562 9520 9519 9517 ] final  -70.14 input   60.00 | X-H torsion
[ 8325 8297 8298 8299 ] final -157.69 input   91.63 | X-H torsion
[ 10204 10169 10170 10171 ] final   10.43 input   34.07 | X-H torsion
[ 7962 7922 7923 7924 ] final -148.82 input   79.92 | X-H torsion
[ 7893 7875 7876 7877 ] final   86.69 input   91.72 | X-H torsion
[ 7902 7880 7879 7876 ] final -148.59 input   60.02 | X-H torsion
[ 6826 6786 6787 6788 ] final  163.46 input  113.73 | X-H torsion
[ 27193 6320 6319 6318 ] final   50.93 input    0.00 | X-H torsion
[ 27196 6560 6559 6558 ] final  169.84 input    0.00 | X-H torsion
[ 27199 7878 7877 7876 ] final  -52.30 input    0.00 | X-H torsion
[ 27202 8012 8011 8010 ] final  141.28 input    0.00 | X-H torsion
[ 27205 8089 8088 8087 ] final   25.04 input   -0.00 | X-H torsion
[ 27208 8155 8154 8153 ] final -155.60 input   -0.00 | X-H torsion
[ 27214 10086 10085 10084 ] final  -70.27 input    0.00 | X-H torsion
[ 27217 10172 10171 10170 ] final    4.69 input    0.00 | X-H torsion
[ 27220 6367 6366 6365 ] final  -82.42 input    0.00 | X-H torsion
[ 27222 7925 7924 7923 ] final  -71.57 input   -0.00 | X-H torsion
[ 27224 7790 7789 7788 ] final   55.52 input   -0.00 | X-H torsion

> <Gold.Protein.ActiveResidues>
 ASP403  THR404  LEU406  ILE407  TYR408  ALA410  LYS411  TRP414  TRP426  SER427 
 LYS428  LEU429  GLN430  VAL431  PHE432  ASP433  TYR453  SER462  ALA463  ILE464 

> <Gold.Protein.RotatedAtoms>
  195.2473   -2.3424   37.4460 H   0  0  0  0  0  0  0  0  0  0  0  0  # atno 6595 bound_to 6557
  197.9661   -2.7477   38.7796 H   0  0  0  0  0  0  0  0  0  0  0  0  # atno 6682 bound_to 6637
  196.1985    0.2687   42.2718 H   0  0  0  0  0  0  0  0  0  0  0  0  # atno 6826 bound_to 6786
  197.3427   -0.8634   50.8165 H   0  0  0  0  0  0  0  0  0  0  0  0  # atno 7893 bound_to 7875
  198.9835   -3.6733   51.0691 H   0  0  0  0  0  0  0  0  0  0  0  0  # atno 7902 bound_to 7880
  195.6642   -2.9368   50.0080 H   0  0  0  0  0  0  0  0  0  0  0  0  # atno 7962 bound_to 7922
  192.7133   -2.0137   48.9650 H   0  0  0  0  0  0  0  0  0  0  0  0  # atno 8044 bound_to 8009
  190.6168   -1.6606   45.6325 H   0  0  0  0  0  0  0  0  0  0  0  0  # atno 8121 bound_to 8086
  189.9323   -3.8802   42.6789 H   0  0  0  0  0  0  0  0  0  0  0  0  # atno 8182 bound_to 8152
  187.5716   -1.2583   40.6289 H   0  0  0  0  0  0  0  0  0  0  0  0  # atno 8262 bound_to 8220
  188.2212   -2.5704   37.5334 H   0  0  0  0  0  0  0  0  0  0  0  0  # atno 8325 bound_to 8297
  186.5549   -4.9770   47.0631 H   0  0  0  0  0  0  0  0  0  0  0  0  # atno 9562 bound_to 9520
  187.5424    0.6018   43.1214 H   0  0  0  0  0  0  0  0  0  0  0  0  # atno 10204 bound_to 10169
  194.6941   -5.1527   36.6619 LP  0  0  0  0  0  0  0  0  0  0  0  0  # atno 27193 bound_to 6320
  196.3627   -4.7015   36.5513 LP  0  0  0  0  0  0  0  0  0  0  0  0  # atno 27194 bound_to 6320
  196.6770   -3.3286   37.6313 LP  0  0  0  0  0  0  0  0  0  0  0  0  # atno 27195 bound_to 6557
  197.4531   -1.3084   41.7144 LP  0  0  0  0  0  0  0  0  0  0  0  0  # atno 27196 bound_to 6560
  195.7713   -1.1830   41.3199 LP  0  0  0  0  0  0  0  0  0  0  0  0  # atno 27197 bound_to 6560
  197.2658   -3.0910   40.3471 LP  0  0  0  0  0  0  0  0  0  0  0  0  # atno 27198 bound_to 6637
  195.7099   -3.7106   47.4149 LP  0  0  0  0  0  0  0  0  0  0  0  0  # atno 27199 bound_to 7878
  195.2766   -4.6592   48.7979 LP  0  0  0  0  0  0  0  0  0  0  0  0  # atno 27200 bound_to 7878
  192.9296   -3.1965   47.6970 LP  0  0  0  0  0  0  0  0  0  0  0  0  # atno 27201 bound_to 8009
  191.6531   -4.0114   45.1386 LP  0  0  0  0  0  0  0  0  0  0  0  0  # atno 27202 bound_to 8012
  192.8367   -2.7496   45.0569 LP  0  0  0  0  0  0  0  0  0  0  0  0  # atno 27203 bound_to 8012
  189.6939   -2.4061   46.9187 LP  0  0  0  0  0  0  0  0  0  0  0  0  # atno 27204 bound_to 8086
  188.5975   -0.6015   44.4118 LP  0  0  0  0  0  0  0  0  0  0  0  0  # atno 27205 bound_to 8089
  188.2847   -0.8207   42.7224 LP  0  0  0  0  0  0  0  0  0  0  0  0  # atno 27206 bound_to 8089
  189.3356   -2.3937   43.3851 LP  0  0  0  0  0  0  0  0  0  0  0  0  # atno 27207 bound_to 8152
  188.3189   -4.2586   39.1285 LP  0  0  0  0  0  0  0  0  0  0  0  0  # atno 27208 bound_to 8155
  189.1586   -4.6724   40.5858 LP  0  0  0  0  0  0  0  0  0  0  0  0  # atno 27209 bound_to 8155
  188.7438   -2.3319   39.9082 LP  0  0  0  0  0  0  0  0  0  0  0  0  # atno 27210 bound_to 8220
  185.6806   -6.0888   47.8679 LP  0  0  0  0  0  0  0  0  0  0  0  0  # atno 27211 bound_to 9520
  186.0074   -4.6460   48.5594 LP  0  0  0  0  0  0  0  0  0  0  0  0  # atno 27212 bound_to 9520
  186.7369   -3.0855   36.7635 LP  0  0  0  0  0  0  0  0  0  0  0  0  # atno 27213 bound_to 8297
  188.5194   -1.1840   47.8841 LP  0  0  0  0  0  0  0  0  0  0  0  0  # atno 27214 bound_to 10086
  186.8302   -1.1494   47.5027 LP  0  0  0  0  0  0  0  0  0  0  0  0  # atno 27215 bound_to 10086
  188.0185    1.8437   44.2584 LP  0  0  0  0  0  0  0  0  0  0  0  0  # atno 27216 bound_to 10169
  188.0683    0.0166   41.4688 LP  0  0  0  0  0  0  0  0  0  0  0  0  # atno 27217 bound_to 10172
  187.3379    0.1824   39.9070 LP  0  0  0  0  0  0  0  0  0  0  0  0  # atno 27218 bound_to 10172
  194.9311   -1.3541   49.8656 LP  0  0  0  0  0  0  0  0  0  0  0  0  # atno 27219 bound_to 7922
  197.5246   -4.5815   38.2418 LP  0  0  0  0  0  0  0  0  0  0  0  0  # atno 27220 bound_to 6367
  199.1711   -5.0701   38.4658 LP  0  0  0  0  0  0  0  0  0  0  0  0  # atno 27221 bound_to 6367
  191.1174   -1.4330   50.4507 LP  0  0  0  0  0  0  0  0  0  0  0  0  # atno 27222 bound_to 7925
  192.1063   -0.2400   49.6769 LP  0  0  0  0  0  0  0  0  0  0  0  0  # atno 27223 bound_to 7925
  196.6089    0.8948   47.4330 LP  0  0  0  0  0  0  0  0  0  0  0  0  # atno 27224 bound_to 7790
  195.4202   -0.2790   47.8904 LP  0  0  0  0  0  0  0  0  0  0  0  0  # atno 27225 bound_to 7790
  196.8393    0.0259   49.4054 LP  0  0  0  0  0  0  0  0  0  0  0  0  # atno 27226 bound_to 7875
  197.6037   -4.3919   50.5907 LP  0  0  0  0  0  0  0  0  0  0  0  0  # atno 27227 bound_to 7880
  197.5688   -2.8806   51.2081 LP  0  0  0  0  0  0  0  0  0  0  0  0  # atno 27228 bound_to 7880

> <Gold.Score>
     Fitness  S(hb_ext) S(vdw_ext)  S(hb_int)    S(int)      intcor
     30.31       0.12      22.04       0.00      -0.11      -0.78

> <Gold.Goldscore.Fitness>
30.3143

> <Gold.Goldscore.Internal.Vdw>
-0.3738

> <Gold.Goldscore.Internal.Torsion>
-0.5205

> <Gold.Goldscore.External.Vdw>
22.0425

> <Gold.Goldscore.Internal.HBond>
0.0000

> <Gold.Goldscore.External.HBond>
0.1182

> <Gold.Goldscore.Internal.Correction>
-0.7819

> <Gold.Goldscore.Hbonds>
donor molecule, donor type, donor heavy atom, donor atom, acceptor molecule, acceptor atom, score
      P1  H  8093  8128       L1     9  0.06

> <Gold.Goldscore.Internal.Vdw.Weighted>
-0.3738

> <Gold.Goldscore.Internal.Torsion.Weighted>
-0.5205

> <Gold.Goldscore.External.Vdw.Weighted>
30.3085

> <Gold.Goldscore.Internal.HBond.Weighted>
0.0000

> <Gold.Goldscore.External.HBond.Weighted>
0.1182

> <Gold.Goldscore.Internal.Correction.Weighted>
-0.7819

> <Gold.Rescore>
     Score     S(PLP)   S(hbond)     S(cho)   S(metal)  DE(clash)   DE(tors)     intcor
     35.61     -34.79       1.03       0.00       0.00       2.01       0.14       ----

> <Gold.PLP.Fitness>
35.6147

> <Gold.PLP.PLP>
-34.7937

> <Gold.PLP.part.hbond>
-3.0000

> <Gold.PLP.part.metal>
0.0000

> <Gold.PLP.part.buried>
-5.3839

> <Gold.PLP.part.nonpolar>
-27.1424

> <Gold.PLP.part.repulsive>
0.2652

> <Gold.PLP.ligand.clash>
2.0097

> <Gold.PLP.ligand.torsion>
0.1355

> <Gold.PLP.Chemscore.Hbond>
1.0339

> <Gold.PLP.Chemscore.CHOScore>
0.0000

> <Gold.PLP.Chemscore.Metal>
0.0000

> <Gold.Chemscore.Hbonds>
donor molecule, donor type, donor heavy atom, donor atom, acceptor molecule, acceptor atom, score
      P1  H  6794  6837       L1    17  0.16
      P1  H  8093  8128       L1     9  0.58

> <Gold.PLP.Chemscore.Internal.Correction>
   9.000000E+99

#       Name:                CT1002167954
#       Creating user name   hitesit
#       Creation time:       Sun Apr 16 22:58:04 2023


#       File generated by GOLD software.
#

@<TRIPOS>MOLECULE
CT1002167954|ligand_prepared|mol2|1|dock8
    29    30     1
SMALL
NO_CHARGES


@<TRIPOS>ATOM
      1 C1         191.7086  -7.0572  45.0486 C.3            1 RES1               0.0000
      2 C2         191.5644  -6.4881  46.4748 C.ar           1 RES1               0.0000
      3 C3         193.1701  -7.4687  44.8972 C.2            1 RES1               0.0000
      4 C4         190.7226  -8.2160  44.9500 C.2            1 RES1               0.0000
      5 C5         191.3660  -6.0423  43.9332 C.3            1 RES1               0.0000
      6 C6         192.5155  -6.7716  47.4504 C.ar           1 RES1               0.0000
      7 C7         190.4892  -5.6773  46.8285 C.ar           1 RES1               0.0000
      8 N8         193.4563  -8.8020  44.9157 N.am           1 RES1               0.0000
      9 O9         194.0622  -6.6348  44.8028 O.2            1 RES1               0.0000
     10 N10        191.2300  -9.4793  44.7939 N.am           1 RES1               0.0000
     11 O11        189.5115  -8.0484  45.0229 O.2            1 RES1               0.0000
     12 C12        191.7797  -6.4969  42.5424 C.3            1 RES1               0.0000
     13 C13        192.3977  -6.2607  48.7323 C.ar           1 RES1               0.0000
     14 C14        190.3731  -5.1676  48.1112 C.ar           1 RES1               0.0000
     15 C15        192.5530  -9.8283  44.8031 C.2            1 RES1               0.0000
     16 C16        191.3268  -5.4581  49.0635 C.ar           1 RES1               0.0000
     17 O17        192.9300 -10.9930  44.7121 O.2            1 RES1               0.0000
     18 H18        190.2837  -5.8634  43.9389 H              1 RES1               0.0000
     19 H19        191.8643  -5.0908  44.1564 H              1 RES1               0.0000
     20 H20        193.3638  -7.4033  47.2090 H              1 RES1               0.0000
     21 H21        189.7264  -5.4364  46.0959 H              1 RES1               0.0000
     22 H22        194.4321  -9.0599  45.0233 H              1 RES1               0.0000
     23 H23        190.5593 -10.2290  44.6582 H              1 RES1               0.0000
     24 H24        191.5164  -5.7485  41.7978 H              1 RES1               0.0000
     25 H25        192.8543  -6.6600  42.4936 H              1 RES1               0.0000
     26 H26        191.2831  -7.4280  42.2774 H              1 RES1               0.0000
     27 H27        193.1502  -6.4934  49.4785 H              1 RES1               0.0000
     28 H28        189.5283  -4.5368  48.3675 H              1 RES1               0.0000
     29 H29        191.2349  -5.0576  50.0677 H              1 RES1               0.0000
@<TRIPOS>BOND
    1    1    2 1     
    2    1    3 1     
    3    1    4 1     
    4    1    5 1     
    5    2    6 ar    
    6    2    7 ar    
    7    3    8 1     
    8    3    9 2     
    9    4   10 1     
   10    4   11 2     
   11    5   12 1     
   12    5   18 1     
   13    5   19 1     
   14    6   13 ar    
   15    6   20 1     
   16    7   14 ar    
   17    7   21 1     
   18    8   15 1     
   19    8   22 1     
   20   10   15 1     
   21   10   23 1     
   22   12   24 1     
   23   12   25 1     
   24   12   26 1     
   25   13   16 ar    
   26   13   27 1     
   27   14   16 ar    
   28   14   28 1     
   29   15   17 2     
   30   16   29 1     
@<TRIPOS>SUBSTRUCTURE
      1 RES1           1
@<TRIPOS>SET
DONOR_HYDROGENS      STATIC     ATOMS    <user>   **** ""
2 22 23
ATOM$RED        STATIC     ATOMS    COLORGROUP SYSTEM
2 22 23
@<TRIPOS>COMMENT
> <Gold.Version>
2022.3.0

> <Gold.Id.Protein>
unknown|4d1n_clean|pdb

> <Gold.Protein.RotatedTorsions>
[ 6595 6557 6558 6559 ] final  -83.81 input  116.17 | X-H torsion
[ 6682 6637 6638 6639 ] final -138.88 input  120.05 | X-H torsion
[ 8044 8009 8010 8011 ] final  -26.94 input   40.01 | X-H torsion
[ 8121 8086 8087 8088 ] final  138.57 input   93.99 | X-H torsion
[ 8182 8152 8153 8154 ] final  162.37 input   75.44 | X-H torsion
[ 8262 8220 8221 8222 ] final  171.77 input   81.29 | X-H torsion
[ 9562 9520 9519 9517 ] final -102.06 input   60.00 | X-H torsion
[ 8325 8297 8298 8299 ] final  -24.77 input   91.63 | X-H torsion
[ 10204 10169 10170 10171 ] final  138.08 input   34.07 | X-H torsion
[ 7962 7922 7923 7924 ] final  -57.64 input   79.92 | X-H torsion
[ 7893 7875 7876 7877 ] final -148.51 input   91.72 | X-H torsion
[ 7902 7880 7879 7876 ] final  148.55 input   60.02 | X-H torsion
[ 6826 6786 6787 6788 ] final  129.39 input  113.73 | X-H torsion
[ 27193 6320 6319 6318 ] final  -59.22 input    0.00 | X-H torsion
[ 27196 6560 6559 6558 ] final    8.49 input    0.00 | X-H torsion
[ 27199 7878 7877 7876 ] final   -8.85 input    0.00 | X-H torsion
[ 27202 8012 8011 8010 ] final  -47.67 input    0.00 | X-H torsion
[ 27205 8089 8088 8087 ] final  118.97 input   -0.00 | X-H torsion
[ 27208 8155 8154 8153 ] final   24.26 input   -0.00 | X-H torsion
[ 27214 10086 10085 10084 ] final  -62.76 input    0.00 | X-H torsion
[ 27217 10172 10171 10170 ] final  -32.99 input    0.00 | X-H torsion
[ 27220 6367 6366 6365 ] final   16.04 input    0.00 | X-H torsion
[ 27222 7925 7924 7923 ] final   85.46 input   -0.00 | X-H torsion
[ 27224 7790 7789 7788 ] final -147.61 input   -0.00 | X-H torsion

> <Gold.Protein.ActiveResidues>
 ASP403  THR404  LEU406  ILE407  TYR408  ALA410  LYS411  TRP414  TRP426  SER427 
 LYS428  LEU429  GLN430  VAL431  PHE432  ASP433  TYR453  SER462  ALA463  ILE464 

> <Gold.Protein.RotatedAtoms>
  195.6710   -2.0103   37.5437 H   0  0  0  0  0  0  0  0  0  0  0  0  # atno 6595 bound_to 6557
  197.4949   -3.5068   40.2388 H   0  0  0  0  0  0  0  0  0  0  0  0  # atno 6682 bound_to 6637
  196.6748    0.1262   42.1325 H   0  0  0  0  0  0  0  0  0  0  0  0  # atno 6826 bound_to 6786
  197.6328   -0.0387   49.5401 H   0  0  0  0  0  0  0  0  0  0  0  0  # atno 7893 bound_to 7875
  198.4960   -4.4310   50.6918 H   0  0  0  0  0  0  0  0  0  0  0  0  # atno 7902 bound_to 7880
  195.2289   -2.2216   49.0537 H   0  0  0  0  0  0  0  0  0  0  0  0  # atno 7962 bound_to 7922
  192.2846   -3.2855   48.1271 H   0  0  0  0  0  0  0  0  0  0  0  0  # atno 8044 bound_to 8009
  189.5460   -2.2699   46.8961 H   0  0  0  0  0  0  0  0  0  0  0  0  # atno 8121 bound_to 8086
  190.4525   -2.8583   43.2458 H   0  0  0  0  0  0  0  0  0  0  0  0  # atno 8182 bound_to 8152
  187.6252   -2.0879   40.8997 H   0  0  0  0  0  0  0  0  0  0  0  0  # atno 8262 bound_to 8220
  186.7250   -2.4018   36.9108 H   0  0  0  0  0  0  0  0  0  0  0  0  # atno 8325 bound_to 8297
  186.3843   -5.4535   46.9691 H   0  0  0  0  0  0  0  0  0  0  0  0  # atno 9562 bound_to 9520
  188.6019    1.4093   43.9983 H   0  0  0  0  0  0  0  0  0  0  0  0  # atno 10204 bound_to 10169
  195.6357   -4.3299   35.9886 LP  0  0  0  0  0  0  0  0  0  0  0  0  # atno 27193 bound_to 6320
  195.4212   -5.5242   37.2246 LP  0  0  0  0  0  0  0  0  0  0  0  0  # atno 27194 bound_to 6320
  196.2620   -3.6539   37.5356 LP  0  0  0  0  0  0  0  0  0  0  0  0  # atno 27195 bound_to 6557
  195.7595   -1.3961   41.5022 LP  0  0  0  0  0  0  0  0  0  0  0  0  # atno 27196 bound_to 6560
  197.4649   -1.0953   41.5322 LP  0  0  0  0  0  0  0  0  0  0  0  0  # atno 27197 bound_to 6560
  197.7210   -2.3577   38.9374 LP  0  0  0  0  0  0  0  0  0  0  0  0  # atno 27198 bound_to 6637
  196.2199   -4.0016   47.6723 LP  0  0  0  0  0  0  0  0  0  0  0  0  # atno 27199 bound_to 7878
  194.7667   -4.3682   48.5405 LP  0  0  0  0  0  0  0  0  0  0  0  0  # atno 27200 bound_to 7878
  193.3483   -1.9544   48.5154 LP  0  0  0  0  0  0  0  0  0  0  0  0  # atno 27201 bound_to 8009
  192.7715   -2.7101   44.9453 LP  0  0  0  0  0  0  0  0  0  0  0  0  # atno 27202 bound_to 8012
  191.7183   -4.0509   45.2503 LP  0  0  0  0  0  0  0  0  0  0  0  0  # atno 27203 bound_to 8012
  190.7325   -1.8152   45.6931 LP  0  0  0  0  0  0  0  0  0  0  0  0  # atno 27204 bound_to 8086
  189.2053   -0.3852   43.3225 LP  0  0  0  0  0  0  0  0  0  0  0  0  # atno 27205 bound_to 8089
  187.6770   -1.0370   43.8117 LP  0  0  0  0  0  0  0  0  0  0  0  0  # atno 27206 bound_to 8089
  188.8328   -3.3814   42.8371 LP  0  0  0  0  0  0  0  0  0  0  0  0  # atno 27207 bound_to 8152
  189.1604   -4.6721   40.5848 LP  0  0  0  0  0  0  0  0  0  0  0  0  # atno 27208 bound_to 8155
  188.3171   -4.2588   39.1295 LP  0  0  0  0  0  0  0  0  0  0  0  0  # atno 27209 bound_to 8155
  188.6912   -1.5158   39.6418 LP  0  0  0  0  0  0  0  0  0  0  0  0  # atno 27210 bound_to 8220
  185.5728   -5.8593   48.3201 LP  0  0  0  0  0  0  0  0  0  0  0  0  # atno 27211 bound_to 9520
  186.2870   -4.3956   48.2019 LP  0  0  0  0  0  0  0  0  0  0  0  0  # atno 27212 bound_to 9520
  188.1866   -3.2488   37.3668 LP  0  0  0  0  0  0  0  0  0  0  0  0  # atno 27213 bound_to 8297
  188.4872   -1.1967   47.9919 LP  0  0  0  0  0  0  0  0  0  0  0  0  # atno 27214 bound_to 10086
  186.8625   -1.1367   47.3948 LP  0  0  0  0  0  0  0  0  0  0  0  0  # atno 27215 bound_to 10086
  186.9917    1.0611   43.4085 LP  0  0  0  0  0  0  0  0  0  0  0  0  # atno 27216 bound_to 10169
  188.4691    0.1166   41.0917 LP  0  0  0  0  0  0  0  0  0  0  0  0  # atno 27217 bound_to 10172
  186.9372    0.0823   40.2841 LP  0  0  0  0  0  0  0  0  0  0  0  0  # atno 27218 bound_to 10172
  195.3529   -2.0474   50.7905 LP  0  0  0  0  0  0  0  0  0  0  0  0  # atno 27219 bound_to 7922
  198.2032   -5.5953   38.7238 LP  0  0  0  0  0  0  0  0  0  0  0  0  # atno 27220 bound_to 6367
  198.4925   -4.0562   37.9838 LP  0  0  0  0  0  0  0  0  0  0  0  0  # atno 27221 bound_to 6367
  192.2766   -0.2890   49.9728 LP  0  0  0  0  0  0  0  0  0  0  0  0  # atno 27222 bound_to 7925
  190.9471   -1.3840   50.1548 LP  0  0  0  0  0  0  0  0  0  0  0  0  # atno 27223 bound_to 7925
  195.6808   -0.4819   47.7833 LP  0  0  0  0  0  0  0  0  0  0  0  0  # atno 27224 bound_to 7790
  196.3483    1.0977   47.5401 LP  0  0  0  0  0  0  0  0  0  0  0  0  # atno 27225 bound_to 7790
  196.5504   -0.7953   50.6765 LP  0  0  0  0  0  0  0  0  0  0  0  0  # atno 27226 bound_to 7875
  197.1187   -3.5801   50.8598 LP  0  0  0  0  0  0  0  0  0  0  0  0  # atno 27227 bound_to 7880
  198.5446   -2.9297   51.3188 LP  0  0  0  0  0  0  0  0  0  0  0  0  # atno 27228 bound_to 7880

> <Gold.Score>
     Fitness  S(hb_ext) S(vdw_ext)  S(hb_int)    S(int)      intcor
     30.26       6.45      18.33       0.00      -1.39      -0.76

> <Gold.Goldscore.Fitness>
30.2559

> <Gold.Goldscore.Internal.Vdw>
-1.5525

> <Gold.Goldscore.Internal.Torsion>
-0.5982

> <Gold.Goldscore.External.Vdw>
18.3278

> <Gold.Goldscore.Internal.HBond>
0.0000

> <Gold.Goldscore.External.HBond>
6.4487

> <Gold.Goldscore.Internal.Correction>
-0.7573

> <Gold.Goldscore.Hbonds>
donor molecule, donor type, donor heavy atom, donor atom, acceptor molecule, acceptor atom, score
      P1  H  6794  6837       L1     9  1.00
      P1  H  8093  8127       L1    11  0.22

> <Gold.Goldscore.Internal.Vdw.Weighted>
-1.5525

> <Gold.Goldscore.Internal.Torsion.Weighted>
-0.5982

> <Gold.Goldscore.External.Vdw.Weighted>
25.2007

> <Gold.Goldscore.Internal.HBond.Weighted>
0.0000

> <Gold.Goldscore.External.HBond.Weighted>
6.4487

> <Gold.Goldscore.Internal.Correction.Weighted>
-0.7573

> <Gold.Rescore>
     Score     S(PLP)   S(hbond)     S(cho)   S(metal)  DE(clash)   DE(tors)     intcor
     31.98     -28.61       1.89       0.00       0.00       1.63       0.33       ----

> <Gold.PLP.Fitness>
31.9837

> <Gold.PLP.PLP>
-28.6080

> <Gold.PLP.part.hbond>
-1.9360

> <Gold.PLP.part.metal>
0.0000

> <Gold.PLP.part.buried>
-4.5851

> <Gold.PLP.part.nonpolar>
-22.9075

> <Gold.PLP.part.repulsive>
0.1434

> <Gold.PLP.ligand.clash>
1.6280

> <Gold.PLP.ligand.torsion>
0.3301

> <Gold.PLP.Chemscore.Hbond>
1.8880

> <Gold.PLP.Chemscore.CHOScore>
0.0000

> <Gold.PLP.Chemscore.Metal>
0.0000

> <Gold.Chemscore.Hbonds>
donor molecule, donor type, donor heavy atom, donor atom, acceptor molecule, acceptor atom, score
      P1  H  6794  6837       L1     9  0.62
      P1  H  8093  8127       L1    11  0.77

> <Gold.PLP.Chemscore.Internal.Correction>
   9.000000E+99

#       Name:                CT1002167954
#       Creating user name   hitesit
#       Creation time:       Sun Apr 16 22:58:02 2023


#       File generated by GOLD software.
#

@<TRIPOS>MOLECULE
CT1002167954|ligand_prepared|mol2|1|dock5
    29    30     1
SMALL
NO_CHARGES


@<TRIPOS>ATOM
      1 C1         190.7229  -5.9649  48.4233 C.3            1 RES1               0.0000
      2 C2         190.1381  -4.9392  49.4157 C.ar           1 RES1               0.0000
      3 C3         191.8853  -6.6427  49.1429 C.2            1 RES1               0.0000
      4 C4         189.5806  -6.9075  48.0613 C.2            1 RES1               0.0000
      5 C5         191.2554  -5.3350  47.1151 C.3            1 RES1               0.0000
      6 C6         190.2308  -5.1490  50.7884 C.ar           1 RES1               0.0000
      7 C7         189.5066  -3.7795  48.9745 C.ar           1 RES1               0.0000
      8 N8         191.7000  -7.9224  49.5765 N.am           1 RES1               0.0000
      9 O9         192.9345  -6.0498  49.3615 O.2            1 RES1               0.0000
     10 N10        189.6808  -8.2173  48.4514 N.am           1 RES1               0.0000
     11 O11        188.5869  -6.5242  47.4564 O.2            1 RES1               0.0000
     12 C12        191.9894  -6.3174  46.2161 C.3            1 RES1               0.0000
     13 C13        189.7136  -4.2312  51.6875 C.ar           1 RES1               0.0000
     14 C14        188.9898  -2.8630  49.8754 C.ar           1 RES1               0.0000
     15 C15        190.6745  -8.7606  49.2193 C.2            1 RES1               0.0000
     16 C16        189.0932  -3.0875  51.2317 C.ar           1 RES1               0.0000
     17 O17        190.6672  -9.9354  49.5755 O.2            1 RES1               0.0000
     18 H18        190.4109  -4.9101  46.5586 H              1 RES1               0.0000
     19 H19        191.9361  -4.5135  47.3703 H              1 RES1               0.0000
     20 H20        190.7134  -6.0445  51.1657 H              1 RES1               0.0000
     21 H21        189.4128  -3.5825  47.9120 H              1 RES1               0.0000
     22 H22        192.3874  -8.2901  50.2266 H              1 RES1               0.0000
     23 H23        188.9467  -8.8456  48.1405 H              1 RES1               0.0000
     24 H24        192.3419  -5.8242  45.3126 H              1 RES1               0.0000
     25 H25        192.8504  -6.7407  46.7291 H              1 RES1               0.0000
     26 H26        191.3343  -7.1349  45.9222 H              1 RES1               0.0000
     27 H27        189.7963  -4.4132  52.7539 H              1 RES1               0.0000
     28 H28        188.5019  -1.9646  49.5122 H              1 RES1               0.0000
     29 H29        188.6884  -2.3685  51.9363 H              1 RES1               0.0000
@<TRIPOS>BOND
    1    1    2 1     
    2    1    3 1     
    3    1    4 1     
    4    1    5 1     
    5    2    6 ar    
    6    2    7 ar    
    7    3    8 1     
    8    3    9 2     
    9    4   10 1     
   10    4   11 2     
   11    5   12 1     
   12    5   18 1     
   13    5   19 1     
   14    6   13 ar    
   15    6   20 1     
   16    7   14 ar    
   17    7   21 1     
   18    8   15 1     
   19    8   22 1     
   20   10   15 1     
   21   10   23 1     
   22   12   24 1     
   23   12   25 1     
   24   12   26 1     
   25   13   16 ar    
   26   13   27 1     
   27   14   16 ar    
   28   14   28 1     
   29   15   17 2     
   30   16   29 1     
@<TRIPOS>SUBSTRUCTURE
      1 RES1           1
@<TRIPOS>SET
DONOR_HYDROGENS      STATIC     ATOMS    <user>   **** ""
2 22 23
ATOM$RED        STATIC     ATOMS    COLORGROUP SYSTEM
2 22 23
@<TRIPOS>COMMENT
> <Gold.Version>
2022.3.0

> <Gold.Id.Protein>
unknown|4d1n_clean|pdb

> <Gold.Protein.RotatedTorsions>
[ 6595 6557 6558 6559 ] final  112.98 input  116.17 | X-H torsion
[ 6682 6637 6638 6639 ] final    3.39 input  120.05 | X-H torsion
[ 8044 8009 8010 8011 ] final -152.45 input   40.01 | X-H torsion
[ 8121 8086 8087 8088 ] final   -1.59 input   93.99 | X-H torsion
[ 8182 8152 8153 8154 ] final  -17.35 input   75.44 | X-H torsion
[ 8262 8220 8221 8222 ] final    3.15 input   81.29 | X-H torsion
[ 9562 9520 9519 9517 ] final   35.17 input   60.00 | X-H torsion
[ 8325 8297 8298 8299 ] final  -90.19 input   91.63 | X-H torsion
[ 10204 10169 10170 10171 ] final  136.04 input   34.07 | X-H torsion
[ 7962 7922 7923 7924 ] final  144.56 input   79.92 | X-H torsion
[ 7893 7875 7876 7877 ] final -122.24 input   91.72 | X-H torsion
[ 7902 7880 7879 7876 ] final  168.03 input   60.02 | X-H torsion
[ 6826 6786 6787 6788 ] final   -0.19 input  113.73 | X-H torsion
[ 27193 6320 6319 6318 ] final   -4.09 input    0.00 | X-H torsion
[ 27196 6560 6559 6558 ] final -105.69 input    0.00 | X-H torsion
[ 27199 7878 7877 7876 ] final   74.22 input    0.00 | X-H torsion
[ 27202 8012 8011 8010 ] final  -80.12 input    0.00 | X-H torsion
[ 27205 8089 8088 8087 ] final -127.95 input   -0.00 | X-H torsion
[ 27208 8155 8154 8153 ] final  -28.37 input   -0.00 | X-H torsion
[ 27214 10086 10085 10084 ] final  128.71 input    0.00 | X-H torsion
[ 27217 10172 10171 10170 ] final    8.14 input    0.00 | X-H torsion
[ 27220 6367 6366 6365 ] final  159.67 input    0.00 | X-H torsion
[ 27222 7925 7924 7923 ] final   42.86 input   -0.00 | X-H torsion
[ 27224 7790 7789 7788 ] final  176.82 input   -0.00 | X-H torsion

> <Gold.Protein.ActiveResidues>
 ASP403  THR404  LEU406  ILE407  TYR408  ALA410  LYS411  TRP414  TRP426  SER427 
 LYS428  LEU429  GLN430  VAL431  PHE432  ASP433  TYR453  SER462  ALA463  ILE464 

> <Gold.Protein.RotatedAtoms>
  196.0195   -3.7201   37.4897 H   0  0  0  0  0  0  0  0  0  0  0  0  # atno 6595 bound_to 6557
  197.4421   -2.0790   39.3453 H   0  0  0  0  0  0  0  0  0  0  0  0  # atno 6682 bound_to 6637
  197.3245    1.5788   42.0283 H   0  0  0  0  0  0  0  0  0  0  0  0  # atno 6826 bound_to 6786
  197.2741    0.0554   49.3993 H   0  0  0  0  0  0  0  0  0  0  0  0  # atno 7893 bound_to 7875
  198.7435   -4.2617   50.7947 H   0  0  0  0  0  0  0  0  0  0  0  0  # atno 7902 bound_to 7880
  195.4784   -2.3613   50.7740 H   0  0  0  0  0  0  0  0  0  0  0  0  # atno 7962 bound_to 7922
  192.6941   -2.0240   48.9710 H   0  0  0  0  0  0  0  0  0  0  0  0  # atno 8044 bound_to 8009
  190.2932   -1.4117   45.6736 H   0  0  0  0  0  0  0  0  0  0  0  0  # atno 8121 bound_to 8086
  188.8090   -3.3839   42.8081 H   0  0  0  0  0  0  0  0  0  0  0  0  # atno 8182 bound_to 8152
  188.6192   -1.3584   39.6566 H   0  0  0  0  0  0  0  0  0  0  0  0  # atno 8262 bound_to 8220
  187.4613   -1.9676   37.3487 H   0  0  0  0  0  0  0  0  0  0  0  0  # atno 8325 bound_to 8297
  186.1368   -4.5069   48.4123 H   0  0  0  0  0  0  0  0  0  0  0  0  # atno 9562 bound_to 9520
  188.6129    1.3853   43.9809 H   0  0  0  0  0  0  0  0  0  0  0  0  # atno 10204 bound_to 10169
  194.8930   -4.6030   36.1155 LP  0  0  0  0  0  0  0  0  0  0  0  0  # atno 27193 bound_to 6320
  196.1639   -5.2511   37.0977 LP  0  0  0  0  0  0  0  0  0  0  0  0  # atno 27194 bound_to 6320
  195.9206   -1.9790   37.5885 LP  0  0  0  0  0  0  0  0  0  0  0  0  # atno 27195 bound_to 6557
  196.8674   -0.5986   41.0013 LP  0  0  0  0  0  0  0  0  0  0  0  0  # atno 27196 bound_to 6560
  196.3569   -1.8928   42.0331 LP  0  0  0  0  0  0  0  0  0  0  0  0  # atno 27197 bound_to 6560
  197.7721   -3.7370   39.8006 LP  0  0  0  0  0  0  0  0  0  0  0  0  # atno 27198 bound_to 6637
  196.0297   -4.6554   48.5972 LP  0  0  0  0  0  0  0  0  0  0  0  0  # atno 27199 bound_to 7878
  194.9568   -3.7144   47.6156 LP  0  0  0  0  0  0  0  0  0  0  0  0  # atno 27200 bound_to 7878
  192.9484   -3.1864   47.6912 LP  0  0  0  0  0  0  0  0  0  0  0  0  # atno 27201 bound_to 8009
  192.4424   -2.7070   44.5905 LP  0  0  0  0  0  0  0  0  0  0  0  0  # atno 27202 bound_to 8012
  192.0474   -4.0541   45.6051 LP  0  0  0  0  0  0  0  0  0  0  0  0  # atno 27203 bound_to 8012
  190.0078   -2.6476   46.8789 LP  0  0  0  0  0  0  0  0  0  0  0  0  # atno 27204 bound_to 8086
  187.9490   -0.9605   42.8995 LP  0  0  0  0  0  0  0  0  0  0  0  0  # atno 27205 bound_to 8089
  188.9332   -0.4617   44.2347 LP  0  0  0  0  0  0  0  0  0  0  0  0  # atno 27206 bound_to 8089
  190.4213   -2.8734   43.2601 LP  0  0  0  0  0  0  0  0  0  0  0  0  # atno 27207 bound_to 8152
  189.5959   -4.5042   39.9750 LP  0  0  0  0  0  0  0  0  0  0  0  0  # atno 27208 bound_to 8155
  187.8817   -4.4267   39.7393 LP  0  0  0  0  0  0  0  0  0  0  0  0  # atno 27209 bound_to 8155
  187.7133   -2.2334   40.8648 LP  0  0  0  0  0  0  0  0  0  0  0  0  # atno 27210 bound_to 8220
  186.4962   -5.1956   46.9823 LP  0  0  0  0  0  0  0  0  0  0  0  0  # atno 27211 bound_to 9520
  185.6129   -6.0128   48.0862 LP  0  0  0  0  0  0  0  0  0  0  0  0  # atno 27212 bound_to 9520
  187.4732   -3.6695   36.9425 LP  0  0  0  0  0  0  0  0  0  0  0  0  # atno 27213 bound_to 8297
  186.9384   -1.1183   47.2403 LP  0  0  0  0  0  0  0  0  0  0  0  0  # atno 27214 bound_to 10086
  188.4113   -1.2150   48.1464 LP  0  0  0  0  0  0  0  0  0  0  0  0  # atno 27215 bound_to 10086
  186.9811    1.0843   43.4254 LP  0  0  0  0  0  0  0  0  0  0  0  0  # atno 27216 bound_to 10169
  188.0208    0.0086   41.4884 LP  0  0  0  0  0  0  0  0  0  0  0  0  # atno 27217 bound_to 10172
  187.3855    0.1903   39.8874 LP  0  0  0  0  0  0  0  0  0  0  0  0  # atno 27218 bound_to 10172
  195.1111   -1.9119   49.1231 LP  0  0  0  0  0  0  0  0  0  0  0  0  # atno 27219 bound_to 7922
  198.9706   -4.2847   38.0903 LP  0  0  0  0  0  0  0  0  0  0  0  0  # atno 27220 bound_to 6367
  197.7251   -5.3668   38.6173 LP  0  0  0  0  0  0  0  0  0  0  0  0  # atno 27221 bound_to 6367
  192.3051   -0.5936   50.5226 LP  0  0  0  0  0  0  0  0  0  0  0  0  # atno 27222 bound_to 7925
  190.9186   -1.0794   49.6051 LP  0  0  0  0  0  0  0  0  0  0  0  0  # atno 27223 bound_to 7925
  196.1686   -0.5411   47.5876 LP  0  0  0  0  0  0  0  0  0  0  0  0  # atno 27224 bound_to 7790
  195.8605    1.1569   47.7359 LP  0  0  0  0  0  0  0  0  0  0  0  0  # atno 27225 bound_to 7790
  196.9077   -0.8890   50.8167 LP  0  0  0  0  0  0  0  0  0  0  0  0  # atno 27226 bound_to 7875
  197.1634   -3.8743   50.7447 LP  0  0  0  0  0  0  0  0  0  0  0  0  # atno 27227 bound_to 7880
  198.2507   -2.8059   51.3303 LP  0  0  0  0  0  0  0  0  0  0  0  0  # atno 27228 bound_to 7880

> <Gold.Score>
     Fitness  S(hb_ext) S(vdw_ext)  S(hb_int)    S(int)      intcor
     28.27       0.02      21.17       0.00      -0.86      -0.76

> <Gold.Goldscore.Fitness>
28.2723

> <Gold.Goldscore.Internal.Vdw>
-1.1649

> <Gold.Goldscore.Internal.Torsion>
-0.4556

> <Gold.Goldscore.External.Vdw>
21.1722

> <Gold.Goldscore.Internal.HBond>
0.0000

> <Gold.Goldscore.External.HBond>
0.0237

> <Gold.Goldscore.Internal.Correction>
-0.7573

> <Gold.Goldscore.Hbonds>
donor molecule, donor type, donor heavy atom, donor atom, acceptor molecule, acceptor atom, score
      P1  H  8093  8128       L1    11  0.01

> <Gold.Goldscore.Internal.Vdw.Weighted>
-1.1649

> <Gold.Goldscore.Internal.Torsion.Weighted>
-0.4556

> <Gold.Goldscore.External.Vdw.Weighted>
29.1118

> <Gold.Goldscore.Internal.HBond.Weighted>
0.0000

> <Gold.Goldscore.External.HBond.Weighted>
0.0237

> <Gold.Goldscore.Internal.Correction.Weighted>
-0.7573

> <Gold.Rescore>
     Score     S(PLP)   S(hbond)     S(cho)   S(metal)  DE(clash)   DE(tors)     intcor
     34.45     -33.71       0.93       0.00       0.00       0.00       1.02       ----

> <Gold.PLP.Fitness>
34.4539

> <Gold.PLP.PLP>
-33.7114

> <Gold.PLP.part.hbond>
-1.4091

> <Gold.PLP.part.metal>
0.0000

> <Gold.PLP.part.buried>
-4.5887

> <Gold.PLP.part.nonpolar>
-28.3430

> <Gold.PLP.part.repulsive>
0.0681

> <Gold.PLP.ligand.clash>
0.0000

> <Gold.PLP.ligand.torsion>
1.0208

> <Gold.PLP.Chemscore.Hbond>
0.9280

> <Gold.PLP.Chemscore.CHOScore>
0.0000

> <Gold.PLP.Chemscore.Metal>
0.0000

> <Gold.Chemscore.Hbonds>
donor molecule, donor type, donor heavy atom, donor atom, acceptor molecule, acceptor atom, score
      P1  H  8093  8128       L1    11  0.59

> <Gold.PLP.Chemscore.Internal.Correction>
   9.000000E+99

#       Name:                CT1002167954
#       Creating user name   hitesit
#       Creation time:       Sun Apr 16 22:58:05 2023


#       File generated by GOLD software.
#

@<TRIPOS>MOLECULE
CT1002167954|ligand_prepared|mol2|1|dock10
    29    30     1
SMALL
NO_CHARGES


@<TRIPOS>ATOM
      1 C1         190.1439  -5.9459  48.5851 C.3            1 RES1               0.0000
      2 C2         189.4592  -4.9014  49.4902 C.ar           1 RES1               0.0000
      3 C3         191.2631  -6.5656  49.4168 C.2            1 RES1               0.0000
      4 C4         189.0562  -6.9316  48.1728 C.2            1 RES1               0.0000
      5 C5         190.7607  -5.3493  47.2985 C.3            1 RES1               0.0000
      6 C6         188.7729  -5.2966  50.6345 C.ar           1 RES1               0.0000
      7 C7         189.5075  -3.5414  49.1958 C.ar           1 RES1               0.0000
      8 N8         191.0758  -7.8334  49.8832 N.am           1 RES1               0.0000
      9 O9         192.2775  -5.9370  49.6924 O.2            1 RES1               0.0000
     10 N10        189.1577  -8.2233  48.6189 N.am           1 RES1               0.0000
     11 O11        188.1035  -6.5974  47.4794 O.2            1 RES1               0.0000
     12 C12        191.3756  -6.3886  46.3744 C.3            1 RES1               0.0000
     13 C13        188.1595  -4.3657  51.4564 C.ar           1 RES1               0.0000
     14 C14        188.8932  -2.6122  50.0190 C.ar           1 RES1               0.0000
     15 C15        190.1018  -8.7114  49.4807 C.2            1 RES1               0.0000
     16 C16        188.2196  -3.0230  51.1495 C.ar           1 RES1               0.0000
     17 O17        190.0954  -9.8724  49.8796 O.2            1 RES1               0.0000
     18 H18        189.9796  -4.8078  46.7508 H              1 RES1               0.0000
     19 H19        191.5353  -4.6257  47.5810 H              1 RES1               0.0000
     20 H20        188.7128  -6.3491  50.8908 H              1 RES1               0.0000
     21 H21        190.0309  -3.1953  48.3110 H              1 RES1               0.0000
     22 H22        191.7195  -8.1587  50.5975 H              1 RES1               0.0000
     23 H23        188.4654  -8.8820  48.2767 H              1 RES1               0.0000
     24 H24        191.7937  -5.9170  45.4876 H              1 RES1               0.0000
     25 H25        192.1737  -6.9293  46.8789 H              1 RES1               0.0000
     26 H26        190.6272  -7.1104  46.0536 H              1 RES1               0.0000
     27 H27        187.6294  -4.6943  52.3442 H              1 RES1               0.0000
     28 H28        188.9425  -1.5565  49.7732 H              1 RES1               0.0000
     29 H29        187.7393  -2.2940  51.7937 H              1 RES1               0.0000
@<TRIPOS>BOND
    1    1    2 1     
    2    1    3 1     
    3    1    4 1     
    4    1    5 1     
    5    2    6 ar    
    6    2    7 ar    
    7    3    8 1     
    8    3    9 2     
    9    4   10 1     
   10    4   11 2     
   11    5   12 1     
   12    5   18 1     
   13    5   19 1     
   14    6   13 ar    
   15    6   20 1     
   16    7   14 ar    
   17    7   21 1     
   18    8   15 1     
   19    8   22 1     
   20   10   15 1     
   21   10   23 1     
   22   12   24 1     
   23   12   25 1     
   24   12   26 1     
   25   13   16 ar    
   26   13   27 1     
   27   14   16 ar    
   28   14   28 1     
   29   15   17 2     
   30   16   29 1     
@<TRIPOS>SUBSTRUCTURE
      1 RES1           1
@<TRIPOS>SET
DONOR_HYDROGENS      STATIC     ATOMS    <user>   **** ""
2 22 23
ATOM$RED        STATIC     ATOMS    COLORGROUP SYSTEM
2 22 23
@<TRIPOS>COMMENT
> <Gold.Version>
2022.3.0

> <Gold.Id.Protein>
unknown|4d1n_clean|pdb

> <Gold.Protein.RotatedTorsions>
[ 6595 6557 6558 6559 ] final -155.85 input  116.17 | X-H torsion
[ 6682 6637 6638 6639 ] final  106.80 input  120.05 | X-H torsion
[ 8044 8009 8010 8011 ] final   66.94 input   40.01 | X-H torsion
[ 8121 8086 8087 8088 ] final    4.89 input   93.99 | X-H torsion
[ 8182 8152 8153 8154 ] final   52.55 input   75.44 | X-H torsion
[ 8262 8220 8221 8222 ] final   21.58 input   81.29 | X-H torsion
[ 9562 9520 9519 9517 ] final  -67.02 input   60.00 | X-H torsion
[ 8325 8297 8298 8299 ] final  -55.56 input   91.63 | X-H torsion
[ 10204 10169 10170 10171 ] final -174.97 input   34.07 | X-H torsion
[ 7962 7922 7923 7924 ] final   67.55 input   79.92 | X-H torsion
[ 7893 7875 7876 7877 ] final  132.68 input   91.72 | X-H torsion
[ 7902 7880 7879 7876 ] final  -44.05 input   60.02 | X-H torsion
[ 6826 6786 6787 6788 ] final -158.77 input  113.73 | X-H torsion
[ 27193 6320 6319 6318 ] final  119.50 input    0.00 | X-H torsion
[ 27196 6560 6559 6558 ] final   -8.78 input    0.00 | X-H torsion
[ 27199 7878 7877 7876 ] final  -48.38 input    0.00 | X-H torsion
[ 27202 8012 8011 8010 ] final  -47.02 input    0.00 | X-H torsion
[ 27205 8089 8088 8087 ] final  128.71 input   -0.00 | X-H torsion
[ 27208 8155 8154 8153 ] final  -89.18 input   -0.00 | X-H torsion
[ 27214 10086 10085 10084 ] final -123.31 input    0.00 | X-H torsion
[ 27217 10172 10171 10170 ] final -165.52 input    0.00 | X-H torsion
[ 27220 6367 6366 6365 ] final   84.83 input    0.00 | X-H torsion
[ 27222 7925 7924 7923 ] final    9.02 input   -0.00 | X-H torsion
[ 27224 7790 7789 7788 ] final   55.37 input   -0.00 | X-H torsion

> <Gold.Protein.ActiveResidues>
 ASP403  THR404  LEU406  ILE407  TYR408  ALA410  LYS411  TRP414  TRP426  SER427 
 LYS428  LEU429  GLN430  VAL431  PHE432  ASP433  TYR453  SER462  ALA463  ILE464 

> <Gold.Protein.RotatedAtoms>
  195.1011   -2.8629   37.3848 H   0  0  0  0  0  0  0  0  0  0  0  0  # atno 6595 bound_to 6557
  198.0828   -3.2348   38.8900 H   0  0  0  0  0  0  0  0  0  0  0  0  # atno 6682 bound_to 6637
  195.8656    0.7174   42.3872 H   0  0  0  0  0  0  0  0  0  0  0  0  # atno 6826 bound_to 6786
  197.8668   -0.6291   50.4483 H   0  0  0  0  0  0  0  0  0  0  0  0  # atno 7893 bound_to 7875
  197.8015   -2.8027   51.2690 H   0  0  0  0  0  0  0  0  0  0  0  0  # atno 7902 bound_to 7880
  195.0061   -1.4325   50.4017 H   0  0  0  0  0  0  0  0  0  0  0  0  # atno 7962 bound_to 7922
  193.3952   -2.8024   47.6772 H   0  0  0  0  0  0  0  0  0  0  0  0  # atno 8044 bound_to 8009
  190.2069   -1.3701   45.7040 H   0  0  0  0  0  0  0  0  0  0  0  0  # atno 8121 bound_to 8086
  189.6609   -3.9159   42.6322 H   0  0  0  0  0  0  0  0  0  0  0  0  # atno 8182 bound_to 8152
  188.4474   -1.1522   39.7423 H   0  0  0  0  0  0  0  0  0  0  0  0  # atno 8262 bound_to 8220
  186.9993   -2.0770   37.1153 H   0  0  0  0  0  0  0  0  0  0  0  0  # atno 8325 bound_to 8297
  186.5644   -4.9324   47.0858 H   0  0  0  0  0  0  0  0  0  0  0  0  # atno 9562 bound_to 9520
  188.1071    1.8458   44.2548 H   0  0  0  0  0  0  0  0  0  0  0  0  # atno 10204 bound_to 10169
  195.4022   -5.5245   37.2207 LP  0  0  0  0  0  0  0  0  0  0  0  0  # atno 27193 bound_to 6320
  195.6547   -4.3296   35.9925 LP  0  0  0  0  0  0  0  0  0  0  0  0  # atno 27194 bound_to 6320
  196.8202   -2.8187   37.6912 LP  0  0  0  0  0  0  0  0  0  0  0  0  # atno 27195 bound_to 6557
  195.7673   -1.1988   41.3329 LP  0  0  0  0  0  0  0  0  0  0  0  0  # atno 27196 bound_to 6560
  197.4571   -1.2926   41.7014 LP  0  0  0  0  0  0  0  0  0  0  0  0  # atno 27197 bound_to 6560
  197.1531   -2.6205   40.2404 LP  0  0  0  0  0  0  0  0  0  0  0  0  # atno 27198 bound_to 6637
  195.7659   -3.7277   47.4233 LP  0  0  0  0  0  0  0  0  0  0  0  0  # atno 27199 bound_to 7878
  195.2206   -4.6421   48.7895 LP  0  0  0  0  0  0  0  0  0  0  0  0  # atno 27200 bound_to 7878
  192.2637   -2.4262   48.9547 LP  0  0  0  0  0  0  0  0  0  0  0  0  # atno 27201 bound_to 8009
  192.7767   -2.7124   44.9533 LP  0  0  0  0  0  0  0  0  0  0  0  0  # atno 27202 bound_to 8012
  191.7131   -4.0486   45.2423 LP  0  0  0  0  0  0  0  0  0  0  0  0  # atno 27203 bound_to 8012
  190.0915   -2.6879   46.8494 LP  0  0  0  0  0  0  0  0  0  0  0  0  # atno 27204 bound_to 8086
  189.1589   -0.4122   43.1857 LP  0  0  0  0  0  0  0  0  0  0  0  0  # atno 27205 bound_to 8089
  187.7233   -1.0100   43.9485 LP  0  0  0  0  0  0  0  0  0  0  0  0  # atno 27206 bound_to 8089
  189.5979   -2.3592   43.4302 LP  0  0  0  0  0  0  0  0  0  0  0  0  # atno 27207 bound_to 8152
  189.2650   -4.2832   39.1939 LP  0  0  0  0  0  0  0  0  0  0  0  0  # atno 27208 bound_to 8155
  188.2126   -4.6477   40.5204 LP  0  0  0  0  0  0  0  0  0  0  0  0  # atno 27209 bound_to 8155
  187.8823   -2.4363   40.7805 LP  0  0  0  0  0  0  0  0  0  0  0  0  # atno 27210 bound_to 8220
  185.6985   -6.0979   47.8207 LP  0  0  0  0  0  0  0  0  0  0  0  0  # atno 27211 bound_to 9520
  185.9799   -4.6819   48.5838 LP  0  0  0  0  0  0  0  0  0  0  0  0  # atno 27212 bound_to 9520
  187.9208   -3.5635   37.1685 LP  0  0  0  0  0  0  0  0  0  0  0  0  # atno 27213 bound_to 8297
  188.3355   -1.0984   47.1376 LP  0  0  0  0  0  0  0  0  0  0  0  0  # atno 27214 bound_to 10086
  187.0142   -1.2349   48.2491 LP  0  0  0  0  0  0  0  0  0  0  0  0  # atno 27215 bound_to 10086
  187.4713    0.6380   43.1599 LP  0  0  0  0  0  0  0  0  0  0  0  0  # atno 27216 bound_to 10169
  187.4759    0.2042   39.8588 LP  0  0  0  0  0  0  0  0  0  0  0  0  # atno 27217 bound_to 10172
  187.9303   -0.0052   41.5170 LP  0  0  0  0  0  0  0  0  0  0  0  0  # atno 27218 bound_to 10172
  195.5689   -2.8122   49.4840 LP  0  0  0  0  0  0  0  0  0  0  0  0  # atno 27219 bound_to 7922
  199.0915   -5.2277   38.5419 LP  0  0  0  0  0  0  0  0  0  0  0  0  # atno 27220 bound_to 6367
  197.6042   -4.4238   38.1657 LP  0  0  0  0  0  0  0  0  0  0  0  0  # atno 27221 bound_to 6367
  192.0605   -0.9382   50.7976 LP  0  0  0  0  0  0  0  0  0  0  0  0  # atno 27222 bound_to 7925
  191.1632   -0.7348   49.3301 LP  0  0  0  0  0  0  0  0  0  0  0  0  # atno 27223 bound_to 7925
  196.6076    0.8963   47.4336 LP  0  0  0  0  0  0  0  0  0  0  0  0  # atno 27224 bound_to 7790
  195.4215   -0.2805   47.8899 LP  0  0  0  0  0  0  0  0  0  0  0  0  # atno 27225 bound_to 7790
  196.3175   -0.2074   49.7721 LP  0  0  0  0  0  0  0  0  0  0  0  0  # atno 27226 bound_to 7875
  198.9609   -3.9059   50.9728 LP  0  0  0  0  0  0  0  0  0  0  0  0  # atno 27227 bound_to 7880
  197.4015   -4.2429   50.6249 LP  0  0  0  0  0  0  0  0  0  0  0  0  # atno 27228 bound_to 7880

> <Gold.Score>
     Fitness  S(hb_ext) S(vdw_ext)  S(hb_int)    S(int)      intcor
     28.03       0.06      20.35       0.00      -0.02      -0.76

> <Gold.Goldscore.Fitness>
28.0299

> <Gold.Goldscore.Internal.Vdw>
-0.3935

> <Gold.Goldscore.Internal.Torsion>
-0.3792

> <Gold.Goldscore.External.Vdw>
20.3516

> <Gold.Goldscore.Internal.HBond>
0.0000

> <Gold.Goldscore.External.HBond>
0.0618

> <Gold.Goldscore.Internal.Correction>
-0.7573

> <Gold.Goldscore.Hbonds>
donor molecule, donor type, donor heavy atom, donor atom, acceptor molecule, acceptor atom, score
      P1  H  8093  8128       L1    11  0.03

> <Gold.Goldscore.Internal.Vdw.Weighted>
-0.3935

> <Gold.Goldscore.Internal.Torsion.Weighted>
-0.3792

> <Gold.Goldscore.External.Vdw.Weighted>
27.9834

> <Gold.Goldscore.Internal.HBond.Weighted>
0.0000

> <Gold.Goldscore.External.HBond.Weighted>
0.0618

> <Gold.Goldscore.Internal.Correction.Weighted>
-0.7573

> <Gold.Rescore>
     Score     S(PLP)   S(hbond)     S(cho)   S(metal)  DE(clash)   DE(tors)     intcor
     34.22     -32.25       0.77       0.00       0.00       0.00       0.17       ----

> <Gold.PLP.Fitness>
34.2159

> <Gold.PLP.PLP>
-32.2472

> <Gold.PLP.part.hbond>
-1.6074

> <Gold.PLP.part.metal>
0.0000

> <Gold.PLP.part.buried>
-4.1619

> <Gold.PLP.part.nonpolar>
-26.5965

> <Gold.PLP.part.repulsive>
0.0717

> <Gold.PLP.ligand.clash>
0.0000

> <Gold.PLP.ligand.torsion>
0.1676

> <Gold.PLP.Chemscore.Hbond>
0.7680

> <Gold.PLP.Chemscore.CHOScore>
0.0000

> <Gold.PLP.Chemscore.Metal>
0.0000

> <Gold.Chemscore.Hbonds>
donor molecule, donor type, donor heavy atom, donor atom, acceptor molecule, acceptor atom, score
      P1  H  8093  8128       L1    11  0.66
      P1  H  9520  9562       L1    11  0.06

> <Gold.PLP.Chemscore.Internal.Correction>
   9.000000E+99

#       Name:                CT1002167954
#       Creating user name   hitesit
#       Creation time:       Sun Apr 16 22:58:01 2023


#       File generated by GOLD software.
#

@<TRIPOS>MOLECULE
CT1002167954|ligand_prepared|mol2|1|dock3
    29    30     1
SMALL
NO_CHARGES


@<TRIPOS>ATOM
      1 C1         191.5960  -7.0657  47.1564 C.3            1 RES1               0.0000
      2 C2         191.5086  -7.0893  45.6167 C.ar           1 RES1               0.0000
      3 C3         192.2761  -5.7510  47.5268 C.2            1 RES1               0.0000
      4 C4         190.1649  -7.1913  47.6669 C.2            1 RES1               0.0000
      5 C5         192.4201  -8.2303  47.7533 C.3            1 RES1               0.0000
      6 C6         191.5136  -5.9034  44.8885 C.ar           1 RES1               0.0000
      7 C7         191.4254  -8.2871  44.9117 C.ar           1 RES1               0.0000
      8 N8         191.4982  -4.7651  48.0585 N.am           1 RES1               0.0000
      9 O9         193.4693  -5.5681  47.3190 O.2            1 RES1               0.0000
     10 N10        189.6275  -6.1256  48.3402 N.am           1 RES1               0.0000
     11 O11        189.4919  -8.1971  47.4777 O.2            1 RES1               0.0000
     12 C12        192.7035  -8.0820  49.2398 C.3            1 RES1               0.0000
     13 C13        191.4409  -5.9145  43.5054 C.ar           1 RES1               0.0000
     14 C14        191.3526  -8.2959  43.5286 C.ar           1 RES1               0.0000
     15 C15        190.2187  -4.9067  48.5323 C.2            1 RES1               0.0000
     16 C16        191.3609  -7.1106  42.8245 C.ar           1 RES1               0.0000
     17 O17        189.6504  -3.9786  49.1007 O.2            1 RES1               0.0000
     18 H18        191.8756  -9.1684  47.5895 H              1 RES1               0.0000
     19 H19        193.3746  -8.2986  47.2170 H              1 RES1               0.0000
     20 H20        191.5735  -4.9524  45.4071 H              1 RES1               0.0000
     21 H21        191.4162  -9.2317  45.4448 H              1 RES1               0.0000
     22 H22        191.9054  -3.8366  48.1082 H              1 RES1               0.0000
     23 H23        188.7010  -6.2528  48.7349 H              1 RES1               0.0000
     24 H24        193.2842  -8.9253  49.6078 H              1 RES1               0.0000
     25 H25        193.2660  -7.1716  49.4364 H              1 RES1               0.0000
     26 H26        191.7758  -8.0363  49.8066 H              1 RES1               0.0000
     27 H27        191.4464  -4.9789  42.9560 H              1 RES1               0.0000
     28 H28        191.2891  -9.2396  42.9969 H              1 RES1               0.0000
     29 H29        191.3044  -7.1190  41.7410 H              1 RES1               0.0000
@<TRIPOS>BOND
    1    1    2 1     
    2    1    3 1     
    3    1    4 1     
    4    1    5 1     
    5    2    6 ar    
    6    2    7 ar    
    7    3    8 1     
    8    3    9 2     
    9    4   10 1     
   10    4   11 2     
   11    5   12 1     
   12    5   18 1     
   13    5   19 1     
   14    6   13 ar    
   15    6   20 1     
   16    7   14 ar    
   17    7   21 1     
   18    8   15 1     
   19    8   22 1     
   20   10   15 1     
   21   10   23 1     
   22   12   24 1     
   23   12   25 1     
   24   12   26 1     
   25   13   16 ar    
   26   13   27 1     
   27   14   16 ar    
   28   14   28 1     
   29   15   17 2     
   30   16   29 1     
@<TRIPOS>SUBSTRUCTURE
      1 RES1           1
@<TRIPOS>SET
DONOR_HYDROGENS      STATIC     ATOMS    <user>   **** ""
2 22 23
ATOM$RED        STATIC     ATOMS    COLORGROUP SYSTEM
2 22 23
@<TRIPOS>COMMENT
> <Gold.Version>
2022.3.0

> <Gold.Id.Protein>
unknown|4d1n_clean|pdb

> <Gold.Protein.RotatedTorsions>
[ 6595 6557 6558 6559 ] final   81.72 input  116.17 | X-H torsion
[ 6682 6637 6638 6639 ] final  128.13 input  120.05 | X-H torsion
[ 8044 8009 8010 8011 ] final  126.77 input   40.01 | X-H torsion
[ 8121 8086 8087 8088 ] final -165.82 input   93.99 | X-H torsion
[ 8182 8152 8153 8154 ] final  -31.66 input   75.44 | X-H torsion
[ 8262 8220 8221 8222 ] final   41.13 input   81.29 | X-H torsion
[ 9562 9520 9519 9517 ] final  120.83 input   60.00 | X-H torsion
[ 8325 8297 8298 8299 ] final   -9.93 input   91.63 | X-H torsion
[ 10204 10169 10170 10171 ] final  -72.25 input   34.07 | X-H torsion
[ 7962 7922 7923 7924 ] final   93.14 input   79.92 | X-H torsion
[ 7893 7875 7876 7877 ] final   21.63 input   91.72 | X-H torsion
[ 7902 7880 7879 7876 ] final   75.41 input   60.02 | X-H torsion
[ 6826 6786 6787 6788 ] final  -12.88 input  113.73 | X-H torsion
[ 27193 6320 6319 6318 ] final -108.74 input    0.00 | X-H torsion
[ 27196 6560 6559 6558 ] final   45.70 input    0.00 | X-H torsion
[ 27199 7878 7877 7876 ] final  132.79 input    0.00 | X-H torsion
[ 27202 8012 8011 8010 ] final   59.87 input    0.00 | X-H torsion
[ 27205 8089 8088 8087 ] final  -72.40 input   -0.00 | X-H torsion
[ 27208 8155 8154 8153 ] final   60.33 input   -0.00 | X-H torsion
[ 27214 10086 10085 10084 ] final  -81.78 input    0.00 | X-H torsion
[ 27217 10172 10171 10170 ] final   69.57 input    0.00 | X-H torsion
[ 27220 6367 6366 6365 ] final   11.55 input    0.00 | X-H torsion
[ 27222 7925 7924 7923 ] final   42.26 input   -0.00 | X-H torsion
[ 27224 7790 7789 7788 ] final   -5.22 input   -0.00 | X-H torsion

> <Gold.Protein.ActiveResidues>
 ASP403  THR404  LEU406  ILE407  TYR408  ALA410  LYS411  TRP414  TRP426  SER427 
 LYS428  LEU429  GLN430  VAL431  PHE432  ASP433  TYR453  SER462  ALA463  ILE464 

> <Gold.Protein.RotatedAtoms>
  196.4623   -3.5715   37.5783 H   0  0  0  0  0  0  0  0  0  0  0  0  # atno 6595 bound_to 6557
  198.0773   -3.4998   39.0859 H   0  0  0  0  0  0  0  0  0  0  0  0  # atno 6682 bound_to 6637
  197.1892    1.7117   42.0727 H   0  0  0  0  0  0  0  0  0  0  0  0  # atno 6826 bound_to 6786
  196.4392   -0.7197   50.6062 H   0  0  0  0  0  0  0  0  0  0  0  0  # atno 7893 bound_to 7875
  197.3997   -4.2322   50.6267 H   0  0  0  0  0  0  0  0  0  0  0  0  # atno 7902 bound_to 7880
  195.1471   -1.6712   50.6809 H   0  0  0  0  0  0  0  0  0  0  0  0  # atno 7962 bound_to 7922
  193.5409   -2.1105   48.2041 H   0  0  0  0  0  0  0  0  0  0  0  0  # atno 8044 bound_to 8009
  190.2062   -2.7612   46.7994 H   0  0  0  0  0  0  0  0  0  0  0  0  # atno 8121 bound_to 8086
  188.7521   -3.1900   42.8992 H   0  0  0  0  0  0  0  0  0  0  0  0  # atno 8182 bound_to 8152
  188.2339   -1.0063   39.8917 H   0  0  0  0  0  0  0  0  0  0  0  0  # atno 8262 bound_to 8220
  186.6653   -2.6087   36.8316 H   0  0  0  0  0  0  0  0  0  0  0  0  # atno 8325 bound_to 8297
  185.5804   -5.6482   48.5032 H   0  0  0  0  0  0  0  0  0  0  0  0  # atno 9562 bound_to 9520
  186.9182    1.4296   43.6719 H   0  0  0  0  0  0  0  0  0  0  0  0  # atno 10204 bound_to 10169
  196.2441   -4.5233   36.3331 LP  0  0  0  0  0  0  0  0  0  0  0  0  # atno 27193 bound_to 6320
  194.8128   -5.3309   36.8801 LP  0  0  0  0  0  0  0  0  0  0  0  0  # atno 27194 bound_to 6320
  195.4868   -2.1246   37.5017 LP  0  0  0  0  0  0  0  0  0  0  0  0  # atno 27195 bound_to 6557
  195.9954   -1.7536   41.8513 LP  0  0  0  0  0  0  0  0  0  0  0  0  # atno 27196 bound_to 6560
  197.2290   -0.7378   41.1831 LP  0  0  0  0  0  0  0  0  0  0  0  0  # atno 27197 bound_to 6560
  197.1584   -2.3644   40.0512 LP  0  0  0  0  0  0  0  0  0  0  0  0  # atno 27198 bound_to 6637
  195.2040   -4.6365   48.7864 LP  0  0  0  0  0  0  0  0  0  0  0  0  # atno 27199 bound_to 7878
  195.7825   -3.7333   47.4264 LP  0  0  0  0  0  0  0  0  0  0  0  0  # atno 27200 bound_to 7878
  192.1214   -3.1020   48.4402 LP  0  0  0  0  0  0  0  0  0  0  0  0  # atno 27201 bound_to 8009
  192.5250   -3.7742   45.8165 LP  0  0  0  0  0  0  0  0  0  0  0  0  # atno 27202 bound_to 8012
  191.9648   -2.9868   44.3790 LP  0  0  0  0  0  0  0  0  0  0  0  0  # atno 27203 bound_to 8012
  190.0921   -1.3386   45.7870 LP  0  0  0  0  0  0  0  0  0  0  0  0  # atno 27204 bound_to 8086
  187.6507   -1.0567   43.6433 LP  0  0  0  0  0  0  0  0  0  0  0  0  # atno 27205 bound_to 8089
  189.2315   -0.3655   43.4909 LP  0  0  0  0  0  0  0  0  0  0  0  0  # atno 27206 bound_to 8089
  190.4764   -3.0609   43.1721 LP  0  0  0  0  0  0  0  0  0  0  0  0  # atno 27207 bound_to 8152
  188.6342   -4.6967   40.6852 LP  0  0  0  0  0  0  0  0  0  0  0  0  # atno 27208 bound_to 8155
  188.8433   -4.2343   39.0291 LP  0  0  0  0  0  0  0  0  0  0  0  0  # atno 27209 bound_to 8155
  188.0924   -2.5798   40.6335 LP  0  0  0  0  0  0  0  0  0  0  0  0  # atno 27210 bound_to 8220
  186.4165   -4.3642   47.9548 LP  0  0  0  0  0  0  0  0  0  0  0  0  # atno 27211 bound_to 9520
  186.2530   -5.6946   47.0220 LP  0  0  0  0  0  0  0  0  0  0  0  0  # atno 27212 bound_to 9520
  188.2445   -3.0483   37.4435 LP  0  0  0  0  0  0  0  0  0  0  0  0  # atno 27213 bound_to 8297
  188.5406   -1.1640   47.7127 LP  0  0  0  0  0  0  0  0  0  0  0  0  # atno 27214 bound_to 10086
  186.8090   -1.1694   47.6740 LP  0  0  0  0  0  0  0  0  0  0  0  0  # atno 27215 bound_to 10086
  188.6236    1.0414   43.7249 LP  0  0  0  0  0  0  0  0  0  0  0  0  # atno 27216 bound_to 10169
  187.1518   -0.0583   41.3368 LP  0  0  0  0  0  0  0  0  0  0  0  0  # atno 27217 bound_to 10172
  188.2545    0.2573   40.0390 LP  0  0  0  0  0  0  0  0  0  0  0  0  # atno 27218 bound_to 10172
  195.4322   -2.5808   49.2133 LP  0  0  0  0  0  0  0  0  0  0  0  0  # atno 27219 bound_to 7922
  198.1368   -5.5825   38.7182 LP  0  0  0  0  0  0  0  0  0  0  0  0  # atno 27220 bound_to 6367
  198.5589   -4.0690   37.9895 LP  0  0  0  0  0  0  0  0  0  0  0  0  # atno 27221 bound_to 6367
  192.3027   -0.5994   50.5292 LP  0  0  0  0  0  0  0  0  0  0  0  0  # atno 27222 bound_to 7925
  190.9210   -1.0736   49.5985 LP  0  0  0  0  0  0  0  0  0  0  0  0  # atno 27223 bound_to 7925
  195.8325    1.1503   47.7470 LP  0  0  0  0  0  0  0  0  0  0  0  0  # atno 27224 bound_to 7790
  196.1966   -0.5345   47.5765 LP  0  0  0  0  0  0  0  0  0  0  0  0  # atno 27225 bound_to 7790
  197.7390   -0.1171   49.6148 LP  0  0  0  0  0  0  0  0  0  0  0  0  # atno 27226 bound_to 7875
  197.8081   -2.7961   51.2750 LP  0  0  0  0  0  0  0  0  0  0  0  0  # atno 27227 bound_to 7880
  198.9587   -3.9138   50.9692 LP  0  0  0  0  0  0  0  0  0  0  0  0  # atno 27228 bound_to 7880

> <Gold.Score>
     Fitness  S(hb_ext) S(vdw_ext)  S(hb_int)    S(int)      intcor
     27.28       4.97      16.90       0.00      -0.92      -0.76

> <Gold.Goldscore.Fitness>
27.2803

> <Gold.Goldscore.Internal.Vdw>
-1.1609

> <Gold.Goldscore.Internal.Torsion>
-0.5193

> <Gold.Goldscore.External.Vdw>
16.8955

> <Gold.Goldscore.Internal.HBond>
0.0000

> <Gold.Goldscore.External.HBond>
4.9708

> <Gold.Goldscore.Internal.Correction>
-0.7585

> <Gold.Goldscore.Hbonds>
donor molecule, donor type, donor heavy atom, donor atom, acceptor molecule, acceptor atom, score
      L1  H     8    22       P1  8009  0.83

> <Gold.Goldscore.Internal.Vdw.Weighted>
-1.1609

> <Gold.Goldscore.Internal.Torsion.Weighted>
-0.5193

> <Gold.Goldscore.External.Vdw.Weighted>
23.2313

> <Gold.Goldscore.Internal.HBond.Weighted>
0.0000

> <Gold.Goldscore.External.HBond.Weighted>
4.9708

> <Gold.Goldscore.Internal.Correction.Weighted>
-0.7585

> <Gold.Rescore>
     Score     S(PLP)   S(hbond)     S(cho)   S(metal)  DE(clash)   DE(tors)     intcor
     26.91     -24.53       1.50       0.00       0.00       0.00       1.06       ----

> <Gold.PLP.Fitness>
26.9110

> <Gold.PLP.PLP>
-24.5280

> <Gold.PLP.part.hbond>
-4.1661

> <Gold.PLP.part.metal>
0.0000

> <Gold.PLP.part.buried>
-1.2633

> <Gold.PLP.part.nonpolar>
-20.8132

> <Gold.PLP.part.repulsive>
0.4386

> <Gold.PLP.ligand.clash>
0.0000

> <Gold.PLP.ligand.torsion>
1.0566

> <Gold.PLP.Chemscore.Hbond>
1.4988

> <Gold.PLP.Chemscore.CHOScore>
0.0000

> <Gold.PLP.Chemscore.Metal>
0.0000

> <Gold.Chemscore.Hbonds>
donor molecule, donor type, donor heavy atom, donor atom, acceptor molecule, acceptor atom, score
      L1  H     8    22       P1  8009  1.00

> <Gold.PLP.Chemscore.Internal.Correction>
   9.000000E+99

