#       Name:                GA Fitting Points
#       Creating user name   hitesit
#       Creation time:       Sun Apr 16 22:57:56 2023


#       Fitting Points Used by GA Software.
#

@<TRIPOS>MOLECULE
GA Fitting Points
  2354    0    0
SMALL
NO_CHARGES


@<TRIPOS>ATOM
      1 ****       188.0000  -5.0000  50.7500 Du        
      2 ****       188.0000  -4.7500  50.7500 Du        
      3 ****       188.0000  -4.7500  51.0000 Du        
      4 ****       188.0000  -4.5000  50.5000 Du        
      5 ****       188.0000  -4.5000  50.7500 Du        
      6 ****       188.0000  -4.5000  51.0000 Du        
      7 ****       188.0000  -4.5000  51.2500 Du        
      8 ****       188.0000  -4.5000  51.5000 Du        
      9 ****       188.0000  -4.2500  50.5000 Du        
     10 ****       188.0000  -4.2500  50.7500 Du        
     11 ****       188.0000  -4.2500  51.0000 Du        
     12 ****       188.0000  -4.2500  51.2500 Du        
     13 ****       188.0000  -4.2500  51.5000 Du        
     14 ****       188.0000  -4.2500  51.7500 Du        
     15 ****       188.0000  -4.2500  52.0000 Du        
     16 ****       188.0000  -4.0000  50.7500 Du        
     17 ****       188.0000  -4.0000  51.0000 Du        
     18 ****       188.0000  -4.0000  51.2500 Du        
     19 ****       188.0000  -4.0000  51.5000 Du        
     20 ****       188.0000  -4.0000  51.7500 Du        
     21 ****       188.0000  -4.0000  52.0000 Du        
     22 ****       188.0000  -4.0000  52.2500 Du        
     23 ****       188.0000  -3.7500  51.2500 Du        
     24 ****       188.0000  -3.7500  51.7500 Du        
     25 ****       188.0000  -3.7500  52.0000 Du        
     26 ****       188.0000  -3.7500  52.2500 Du        
     27 ****       188.0000  -3.5000  51.7500 Du        
     28 ****       188.0000  -3.5000  52.0000 Du        
     29 ****       188.0000  -3.5000  52.2500 Du        
     30 ****       188.0000  -3.2500  52.2500 Du        
     31 ****       188.2500  -5.5000  50.0000 Du        
     32 ****       188.2500  -5.5000  50.2500 Du        
     33 ****       188.2500  -5.2500  50.0000 Du        
     34 ****       188.2500  -5.2500  50.2500 Du        
     35 ****       188.2500  -5.2500  50.5000 Du        
     36 ****       188.2500  -5.2500  50.7500 Du        
     37 ****       188.2500  -5.0000  50.0000 Du        
     38 ****       188.2500  -5.0000  50.2500 Du        
     39 ****       188.2500  -5.0000  50.5000 Du        
     40 ****       188.2500  -5.0000  50.7500 Du        
     41 ****       188.2500  -5.0000  51.0000 Du        
     42 ****       188.2500  -4.7500  50.0000 Du        
     43 ****       188.2500  -4.7500  50.2500 Du        
     44 ****       188.2500  -4.7500  50.5000 Du        
     45 ****       188.2500  -4.7500  50.7500 Du        
     46 ****       188.2500  -4.7500  51.0000 Du        
     47 ****       188.2500  -4.7500  51.2500 Du        
     48 ****       188.2500  -4.5000  49.7500 Du        
     49 ****       188.2500  -4.5000  50.0000 Du        
     50 ****       188.2500  -4.5000  50.2500 Du        
     51 ****       188.2500  -4.5000  50.5000 Du        
     52 ****       188.2500  -4.5000  50.7500 Du        
     53 ****       188.2500  -4.5000  51.0000 Du        
     54 ****       188.2500  -4.5000  51.2500 Du        
     55 ****       188.2500  -4.5000  51.5000 Du        
     56 ****       188.2500  -4.5000  51.7500 Du        
     57 ****       188.2500  -4.2500  49.7500 Du        
     58 ****       188.2500  -4.2500  50.0000 Du        
     59 ****       188.2500  -4.2500  50.2500 Du        
     60 ****       188.2500  -4.2500  50.5000 Du        
     61 ****       188.2500  -4.2500  50.7500 Du        
     62 ****       188.2500  -4.2500  51.0000 Du        
     63 ****       188.2500  -4.2500  51.2500 Du        
     64 ****       188.2500  -4.2500  51.5000 Du        
     65 ****       188.2500  -4.2500  51.7500 Du        
     66 ****       188.2500  -4.2500  52.0000 Du        
     67 ****       188.2500  -4.2500  52.2500 Du        
     68 ****       188.2500  -4.0000  49.5000 Du        
     69 ****       188.2500  -4.0000  49.7500 Du        
     70 ****       188.2500  -4.0000  50.0000 Du        
     71 ****       188.2500  -4.0000  50.2500 Du        
     72 ****       188.2500  -4.0000  50.5000 Du        
     73 ****       188.2500  -4.0000  50.7500 Du        
     74 ****       188.2500  -4.0000  51.0000 Du        
     75 ****       188.2500  -4.0000  51.2500 Du        
     76 ****       188.2500  -4.0000  51.5000 Du        
     77 ****       188.2500  -4.0000  51.7500 Du        
     78 ****       188.2500  -4.0000  52.0000 Du        
     79 ****       188.2500  -4.0000  52.2500 Du        
     80 ****       188.2500  -3.7500  49.2500 Du        
     81 ****       188.2500  -3.7500  49.5000 Du        
     82 ****       188.2500  -3.7500  49.7500 Du        
     83 ****       188.2500  -3.7500  50.0000 Du        
     84 ****       188.2500  -3.7500  50.2500 Du        
     85 ****       188.2500  -3.7500  50.5000 Du        
     86 ****       188.2500  -3.7500  50.7500 Du        
     87 ****       188.2500  -3.7500  51.0000 Du        
     88 ****       188.2500  -3.7500  51.2500 Du        
     89 ****       188.2500  -3.7500  51.5000 Du        
     90 ****       188.2500  -3.7500  51.7500 Du        
     91 ****       188.2500  -3.7500  52.0000 Du        
     92 ****       188.2500  -3.7500  52.2500 Du        
     93 ****       188.2500  -3.5000  49.0000 Du        
     94 ****       188.2500  -3.5000  49.2500 Du        
     95 ****       188.2500  -3.5000  49.5000 Du        
     96 ****       188.2500  -3.5000  49.7500 Du        
     97 ****       188.2500  -3.5000  50.0000 Du        
     98 ****       188.2500  -3.5000  50.2500 Du        
     99 ****       188.2500  -3.5000  50.5000 Du        
    100 ****       188.2500  -3.5000  50.7500 Du        
    101 ****       188.2500  -3.5000  51.0000 Du        
    102 ****       188.2500  -3.5000  51.2500 Du        
    103 ****       188.2500  -3.5000  51.5000 Du        
    104 ****       188.2500  -3.5000  51.7500 Du        
    105 ****       188.2500  -3.5000  52.0000 Du        
    106 ****       188.2500  -3.5000  52.2500 Du        
    107 ****       188.2500  -3.2500  49.0000 Du        
    108 ****       188.2500  -3.2500  49.2500 Du        
    109 ****       188.2500  -3.2500  49.5000 Du        
    110 ****       188.2500  -3.2500  49.7500 Du        
    111 ****       188.2500  -3.2500  50.0000 Du        
    112 ****       188.2500  -3.2500  50.2500 Du        
    113 ****       188.2500  -3.2500  50.5000 Du        
    114 ****       188.2500  -3.2500  50.7500 Du        
    115 ****       188.2500  -3.2500  51.0000 Du        
    116 ****       188.2500  -3.2500  51.2500 Du        
    117 ****       188.2500  -3.2500  51.5000 Du        
    118 ****       188.2500  -3.2500  51.7500 Du        
    119 ****       188.2500  -3.2500  52.0000 Du        
    120 ****       188.2500  -3.2500  52.2500 Du        
    121 ****       188.2500  -3.0000  49.2500 Du        
    122 ****       188.2500  -3.0000  49.5000 Du        
    123 ****       188.2500  -3.0000  49.7500 Du        
    124 ****       188.2500  -3.0000  50.0000 Du        
    125 ****       188.2500  -3.0000  51.2500 Du        
    126 ****       188.2500  -3.0000  51.5000 Du        
    127 ****       188.2500  -3.0000  51.7500 Du        
    128 ****       188.2500  -3.0000  52.0000 Du        
    129 ****       188.2500  -3.0000  52.2500 Du        
    130 ****       188.2500  -2.7500  52.2500 Du        
    131 ****       188.5000  -6.5000  38.0000 Du        
    132 ****       188.5000  -5.5000  49.7500 Du        
    133 ****       188.5000  -5.5000  50.0000 Du        
    134 ****       188.5000  -5.5000  50.2500 Du        
    135 ****       188.5000  -5.2500  49.5000 Du        
    136 ****       188.5000  -5.2500  49.7500 Du        
    137 ****       188.5000  -5.2500  50.0000 Du        
    138 ****       188.5000  -5.2500  50.2500 Du        
    139 ****       188.5000  -5.2500  50.5000 Du        
    140 ****       188.5000  -5.2500  50.7500 Du        
    141 ****       188.5000  -5.0000  49.5000 Du        
    142 ****       188.5000  -5.0000  49.7500 Du        
    143 ****       188.5000  -5.0000  50.0000 Du        
    144 ****       188.5000  -5.0000  50.2500 Du        
    145 ****       188.5000  -5.0000  50.5000 Du        
    146 ****       188.5000  -5.0000  50.7500 Du        
    147 ****       188.5000  -5.0000  51.0000 Du        
    148 ****       188.5000  -4.7500  49.2500 Du        
    149 ****       188.5000  -4.7500  49.5000 Du        
    150 ****       188.5000  -4.7500  49.7500 Du        
    151 ****       188.5000  -4.7500  50.0000 Du        
    152 ****       188.5000  -4.7500  50.2500 Du        
    153 ****       188.5000  -4.7500  50.5000 Du        
    154 ****       188.5000  -4.7500  50.7500 Du        
    155 ****       188.5000  -4.7500  51.0000 Du        
    156 ****       188.5000  -4.7500  51.2500 Du        
    157 ****       188.5000  -4.5000  49.2500 Du        
    158 ****       188.5000  -4.5000  49.5000 Du        
    159 ****       188.5000  -4.5000  49.7500 Du        
    160 ****       188.5000  -4.5000  50.0000 Du        
    161 ****       188.5000  -4.5000  50.2500 Du        
    162 ****       188.5000  -4.5000  50.5000 Du        
    163 ****       188.5000  -4.5000  50.7500 Du        
    164 ****       188.5000  -4.5000  51.0000 Du        
    165 ****       188.5000  -4.5000  51.2500 Du        
    166 ****       188.5000  -4.5000  51.5000 Du        
    167 ****       188.5000  -4.2500  49.0000 Du        
    168 ****       188.5000  -4.2500  49.2500 Du        
    169 ****       188.5000  -4.2500  49.5000 Du        
    170 ****       188.5000  -4.2500  49.7500 Du        
    171 ****       188.5000  -4.2500  50.0000 Du        
    172 ****       188.5000  -4.2500  50.2500 Du        
    173 ****       188.5000  -4.2500  50.5000 Du        
    174 ****       188.5000  -4.2500  50.7500 Du        
    175 ****       188.5000  -4.2500  51.0000 Du        
    176 ****       188.5000  -4.2500  51.2500 Du        
    177 ****       188.5000  -4.2500  51.5000 Du        
    178 ****       188.5000  -4.2500  51.7500 Du        
    179 ****       188.5000  -4.2500  52.0000 Du        
    180 ****       188.5000  -4.0000  49.0000 Du        
    181 ****       188.5000  -4.0000  49.2500 Du        
    182 ****       188.5000  -4.0000  49.5000 Du        
    183 ****       188.5000  -4.0000  49.7500 Du        
    184 ****       188.5000  -4.0000  50.0000 Du        
    185 ****       188.5000  -4.0000  50.2500 Du        
    186 ****       188.5000  -4.0000  50.5000 Du        
    187 ****       188.5000  -4.0000  50.7500 Du        
    188 ****       188.5000  -4.0000  51.0000 Du        
    189 ****       188.5000  -4.0000  51.2500 Du        
    190 ****       188.5000  -4.0000  51.5000 Du        
    191 ****       188.5000  -4.0000  51.7500 Du        
    192 ****       188.5000  -4.0000  52.0000 Du        
    193 ****       188.5000  -4.0000  52.2500 Du        
    194 ****       188.5000  -3.7500  49.0000 Du        
    195 ****       188.5000  -3.7500  49.2500 Du        
    196 ****       188.5000  -3.7500  49.5000 Du        
    197 ****       188.5000  -3.7500  49.7500 Du        
    198 ****       188.5000  -3.7500  50.0000 Du        
    199 ****       188.5000  -3.7500  50.2500 Du        
    200 ****       188.5000  -3.7500  50.5000 Du        
    201 ****       188.5000  -3.7500  50.7500 Du        
    202 ****       188.5000  -3.7500  51.0000 Du        
    203 ****       188.5000  -3.7500  51.2500 Du        
    204 ****       188.5000  -3.7500  51.5000 Du        
    205 ****       188.5000  -3.7500  51.7500 Du        
    206 ****       188.5000  -3.7500  52.0000 Du        
    207 ****       188.5000  -3.7500  52.2500 Du        
    208 ****       188.5000  -3.5000  49.0000 Du        
    209 ****       188.5000  -3.5000  49.2500 Du        
    210 ****       188.5000  -3.5000  49.5000 Du        
    211 ****       188.5000  -3.5000  49.7500 Du        
    212 ****       188.5000  -3.5000  50.0000 Du        
    213 ****       188.5000  -3.5000  50.2500 Du        
    214 ****       188.5000  -3.5000  50.5000 Du        
    215 ****       188.5000  -3.5000  50.7500 Du        
    216 ****       188.5000  -3.5000  51.0000 Du        
    217 ****       188.5000  -3.5000  51.2500 Du        
    218 ****       188.5000  -3.5000  51.5000 Du        
    219 ****       188.5000  -3.5000  51.7500 Du        
    220 ****       188.5000  -3.5000  52.0000 Du        
    221 ****       188.5000  -3.5000  52.2500 Du        
    222 ****       188.5000  -3.2500  49.0000 Du        
    223 ****       188.5000  -3.2500  49.2500 Du        
    224 ****       188.5000  -3.2500  49.5000 Du        
    225 ****       188.5000  -3.2500  49.7500 Du        
    226 ****       188.5000  -3.2500  50.0000 Du        
    227 ****       188.5000  -3.2500  50.2500 Du        
    228 ****       188.5000  -3.2500  50.5000 Du        
    229 ****       188.5000  -3.2500  50.7500 Du        
    230 ****       188.5000  -3.2500  51.0000 Du        
    231 ****       188.5000  -3.2500  51.2500 Du        
    232 ****       188.5000  -3.2500  51.5000 Du        
    233 ****       188.5000  -3.2500  51.7500 Du        
    234 ****       188.5000  -3.2500  52.0000 Du        
    235 ****       188.5000  -3.2500  52.2500 Du        
    236 ****       188.5000  -3.0000  49.0000 Du        
    237 ****       188.5000  -3.0000  49.2500 Du        
    238 ****       188.5000  -3.0000  49.5000 Du        
    239 ****       188.5000  -3.0000  49.7500 Du        
    240 ****       188.5000  -3.0000  50.0000 Du        
    241 ****       188.5000  -3.0000  50.2500 Du        
    242 ****       188.5000  -3.0000  50.5000 Du        
    243 ****       188.5000  -3.0000  50.7500 Du        
    244 ****       188.5000  -3.0000  51.0000 Du        
    245 ****       188.5000  -3.0000  51.2500 Du        
    246 ****       188.5000  -3.0000  51.5000 Du        
    247 ****       188.5000  -3.0000  51.7500 Du        
    248 ****       188.5000  -3.0000  52.0000 Du        
    249 ****       188.5000  -3.0000  52.2500 Du        
    250 ****       188.5000  -2.7500  49.2500 Du        
    251 ****       188.5000  -2.7500  49.5000 Du        
    252 ****       188.5000  -2.7500  49.7500 Du        
    253 ****       188.5000  -2.7500  50.0000 Du        
    254 ****       188.5000  -2.7500  50.2500 Du        
    255 ****       188.5000  -2.7500  50.5000 Du        
    256 ****       188.5000  -2.7500  50.7500 Du        
    257 ****       188.5000  -2.7500  51.0000 Du        
    258 ****       188.5000  -2.7500  51.2500 Du        
    259 ****       188.5000  -2.7500  51.5000 Du        
    260 ****       188.5000  -2.7500  51.7500 Du        
    261 ****       188.5000  -2.7500  52.0000 Du        
    262 ****       188.5000  -2.7500  52.2500 Du        
    263 ****       188.5000  -2.5000  52.2500 Du        
    264 ****       188.7500  -6.5000  37.7500 Du        
    265 ****       188.7500  -6.5000  38.0000 Du        
    266 ****       188.7500  -6.5000  38.2500 Du        
    267 ****       188.7500  -6.0000  49.2500 Du        
    268 ****       188.7500  -5.7500  49.2500 Du        
    269 ****       188.7500  -5.7500  49.5000 Du        
    270 ****       188.7500  -5.7500  49.7500 Du        
    271 ****       188.7500  -5.7500  50.0000 Du        
    272 ****       188.7500  -5.5000  49.0000 Du        
    273 ****       188.7500  -5.5000  49.2500 Du        
    274 ****       188.7500  -5.5000  49.5000 Du        
    275 ****       188.7500  -5.5000  49.7500 Du        
    276 ****       188.7500  -5.5000  50.0000 Du        
    277 ****       188.7500  -5.5000  50.2500 Du        
    278 ****       188.7500  -5.2500  49.0000 Du        
    279 ****       188.7500  -5.2500  49.2500 Du        
    280 ****       188.7500  -5.2500  49.5000 Du        
    281 ****       188.7500  -5.2500  49.7500 Du        
    282 ****       188.7500  -5.2500  50.0000 Du        
    283 ****       188.7500  -5.2500  50.2500 Du        
    284 ****       188.7500  -5.2500  50.5000 Du        
    285 ****       188.7500  -5.2500  50.7500 Du        
    286 ****       188.7500  -5.2500  51.0000 Du        
    287 ****       188.7500  -5.0000  49.0000 Du        
    288 ****       188.7500  -5.0000  49.2500 Du        
    289 ****       188.7500  -5.0000  49.5000 Du        
    290 ****       188.7500  -5.0000  49.7500 Du        
    291 ****       188.7500  -5.0000  50.0000 Du        
    292 ****       188.7500  -5.0000  50.2500 Du        
    293 ****       188.7500  -5.0000  50.5000 Du        
    294 ****       188.7500  -5.0000  50.7500 Du        
    295 ****       188.7500  -5.0000  51.0000 Du        
    296 ****       188.7500  -5.0000  51.2500 Du        
    297 ****       188.7500  -4.7500  49.0000 Du        
    298 ****       188.7500  -4.7500  49.2500 Du        
    299 ****       188.7500  -4.7500  49.5000 Du        
    300 ****       188.7500  -4.7500  49.7500 Du        
    301 ****       188.7500  -4.7500  50.0000 Du        
    302 ****       188.7500  -4.7500  50.2500 Du        
    303 ****       188.7500  -4.7500  50.5000 Du        
    304 ****       188.7500  -4.7500  50.7500 Du        
    305 ****       188.7500  -4.7500  51.0000 Du        
    306 ****       188.7500  -4.7500  51.2500 Du        
    307 ****       188.7500  -4.5000  48.7500 Du        
    308 ****       188.7500  -4.5000  49.0000 Du        
    309 ****       188.7500  -4.5000  49.2500 Du        
    310 ****       188.7500  -4.5000  49.5000 Du        
    311 ****       188.7500  -4.5000  49.7500 Du        
    312 ****       188.7500  -4.5000  50.0000 Du        
    313 ****       188.7500  -4.5000  50.2500 Du        
    314 ****       188.7500  -4.5000  50.5000 Du        
    315 ****       188.7500  -4.5000  50.7500 Du        
    316 ****       188.7500  -4.5000  51.0000 Du        
    317 ****       188.7500  -4.5000  51.2500 Du        
    318 ****       188.7500  -4.5000  51.5000 Du        
    319 ****       188.7500  -4.2500  48.7500 Du        
    320 ****       188.7500  -4.2500  49.0000 Du        
    321 ****       188.7500  -4.2500  49.2500 Du        
    322 ****       188.7500  -4.2500  49.5000 Du        
    323 ****       188.7500  -4.2500  49.7500 Du        
    324 ****       188.7500  -4.2500  50.0000 Du        
    325 ****       188.7500  -4.2500  50.2500 Du        
    326 ****       188.7500  -4.2500  50.5000 Du        
    327 ****       188.7500  -4.2500  50.7500 Du        
    328 ****       188.7500  -4.2500  51.0000 Du        
    329 ****       188.7500  -4.2500  51.2500 Du        
    330 ****       188.7500  -4.2500  51.5000 Du        
    331 ****       188.7500  -4.2500  51.7500 Du        
    332 ****       188.7500  -4.2500  52.0000 Du        
    333 ****       188.7500  -4.2500  52.2500 Du        
    334 ****       188.7500  -4.0000  48.7500 Du        
    335 ****       188.7500  -4.0000  49.0000 Du        
    336 ****       188.7500  -4.0000  49.2500 Du        
    337 ****       188.7500  -4.0000  49.5000 Du        
    338 ****       188.7500  -4.0000  49.7500 Du        
    339 ****       188.7500  -4.0000  50.0000 Du        
    340 ****       188.7500  -4.0000  50.2500 Du        
    341 ****       188.7500  -4.0000  50.5000 Du        
    342 ****       188.7500  -4.0000  50.7500 Du        
    343 ****       188.7500  -4.0000  51.0000 Du        
    344 ****       188.7500  -4.0000  51.2500 Du        
    345 ****       188.7500  -4.0000  51.5000 Du        
    346 ****       188.7500  -4.0000  51.7500 Du        
    347 ****       188.7500  -4.0000  52.0000 Du        
    348 ****       188.7500  -4.0000  52.2500 Du        
    349 ****       188.7500  -3.7500  48.7500 Du        
    350 ****       188.7500  -3.7500  49.0000 Du        
    351 ****       188.7500  -3.7500  49.2500 Du        
    352 ****       188.7500  -3.7500  49.5000 Du        
    353 ****       188.7500  -3.7500  49.7500 Du        
    354 ****       188.7500  -3.7500  50.0000 Du        
    355 ****       188.7500  -3.7500  50.2500 Du        
    356 ****       188.7500  -3.7500  50.5000 Du        
    357 ****       188.7500  -3.7500  50.7500 Du        
    358 ****       188.7500  -3.7500  51.0000 Du        
    359 ****       188.7500  -3.7500  51.2500 Du        
    360 ****       188.7500  -3.7500  51.5000 Du        
    361 ****       188.7500  -3.7500  51.7500 Du        
    362 ****       188.7500  -3.7500  52.0000 Du        
    363 ****       188.7500  -3.7500  52.2500 Du        
    364 ****       188.7500  -3.5000  48.7500 Du        
    365 ****       188.7500  -3.5000  49.0000 Du        
    366 ****       188.7500  -3.5000  49.2500 Du        
    367 ****       188.7500  -3.5000  49.5000 Du        
    368 ****       188.7500  -3.5000  49.7500 Du        
    369 ****       188.7500  -3.5000  50.0000 Du        
    370 ****       188.7500  -3.5000  50.2500 Du        
    371 ****       188.7500  -3.5000  50.5000 Du        
    372 ****       188.7500  -3.5000  50.7500 Du        
    373 ****       188.7500  -3.5000  51.0000 Du        
    374 ****       188.7500  -3.5000  51.2500 Du        
    375 ****       188.7500  -3.5000  51.5000 Du        
    376 ****       188.7500  -3.5000  51.7500 Du        
    377 ****       188.7500  -3.5000  52.0000 Du        
    378 ****       188.7500  -3.5000  52.2500 Du        
    379 ****       188.7500  -3.2500  48.7500 Du        
    380 ****       188.7500  -3.2500  49.0000 Du        
    381 ****       188.7500  -3.2500  49.2500 Du        
    382 ****       188.7500  -3.2500  49.5000 Du        
    383 ****       188.7500  -3.2500  49.7500 Du        
    384 ****       188.7500  -3.2500  50.0000 Du        
    385 ****       188.7500  -3.2500  50.2500 Du        
    386 ****       188.7500  -3.2500  50.5000 Du        
    387 ****       188.7500  -3.2500  50.7500 Du        
    388 ****       188.7500  -3.2500  51.0000 Du        
    389 ****       188.7500  -3.2500  51.2500 Du        
    390 ****       188.7500  -3.2500  51.5000 Du        
    391 ****       188.7500  -3.2500  51.7500 Du        
    392 ****       188.7500  -3.2500  52.0000 Du        
    393 ****       188.7500  -3.2500  52.2500 Du        
    394 ****       188.7500  -3.0000  49.0000 Du        
    395 ****       188.7500  -3.0000  49.2500 Du        
    396 ****       188.7500  -3.0000  49.5000 Du        
    397 ****       188.7500  -3.0000  49.7500 Du        
    398 ****       188.7500  -3.0000  50.0000 Du        
    399 ****       188.7500  -3.0000  50.2500 Du        
    400 ****       188.7500  -3.0000  50.5000 Du        
    401 ****       188.7500  -3.0000  50.7500 Du        
    402 ****       188.7500  -3.0000  51.0000 Du        
    403 ****       188.7500  -3.0000  51.2500 Du        
    404 ****       188.7500  -3.0000  51.5000 Du        
    405 ****       188.7500  -3.0000  51.7500 Du        
    406 ****       188.7500  -3.0000  52.0000 Du        
    407 ****       188.7500  -3.0000  52.2500 Du        
    408 ****       188.7500  -2.7500  49.2500 Du        
    409 ****       188.7500  -2.7500  49.5000 Du        
    410 ****       188.7500  -2.7500  49.7500 Du        
    411 ****       188.7500  -2.7500  50.0000 Du        
    412 ****       188.7500  -2.7500  50.2500 Du        
    413 ****       188.7500  -2.7500  50.5000 Du        
    414 ****       188.7500  -2.7500  50.7500 Du        
    415 ****       188.7500  -2.7500  51.0000 Du        
    416 ****       188.7500  -2.7500  51.2500 Du        
    417 ****       188.7500  -2.7500  51.5000 Du        
    418 ****       188.7500  -2.7500  51.7500 Du        
    419 ****       188.7500  -2.7500  52.0000 Du        
    420 ****       188.7500  -2.7500  52.2500 Du        
    421 ****       188.7500  -2.5000  49.5000 Du        
    422 ****       188.7500  -2.5000  49.7500 Du        
    423 ****       188.7500  -2.5000  50.0000 Du        
    424 ****       188.7500  -2.5000  50.2500 Du        
    425 ****       188.7500  -2.5000  50.5000 Du        
    426 ****       188.7500  -2.5000  50.7500 Du        
    427 ****       188.7500  -2.5000  51.0000 Du        
    428 ****       188.7500  -2.5000  51.2500 Du        
    429 ****       188.7500  -2.5000  51.5000 Du        
    430 ****       188.7500  -2.5000  51.7500 Du        
    431 ****       188.7500  -2.5000  52.0000 Du        
    432 ****       188.7500  -2.5000  52.2500 Du        
    433 ****       188.7500  -2.2500  52.2500 Du        
    434 ****       189.0000  -6.7500  37.7500 Du        
    435 ****       189.0000  -6.5000  37.5000 Du        
    436 ****       189.0000  -6.5000  37.7500 Du        
    437 ****       189.0000  -6.5000  38.0000 Du        
    438 ****       189.0000  -6.5000  38.2500 Du        
    439 ****       189.0000  -6.2500  37.7500 Du        
    440 ****       189.0000  -6.2500  38.0000 Du        
    441 ****       189.0000  -6.2500  49.0000 Du        
    442 ****       189.0000  -6.2500  49.2500 Du        
    443 ****       189.0000  -6.0000  49.0000 Du        
    444 ****       189.0000  -6.0000  49.2500 Du        
    445 ****       189.0000  -6.0000  49.5000 Du        
    446 ****       189.0000  -5.7500  48.7500 Du        
    447 ****       189.0000  -5.7500  49.0000 Du        
    448 ****       189.0000  -5.7500  49.2500 Du        
    449 ****       189.0000  -5.7500  49.5000 Du        
    450 ****       189.0000  -5.7500  49.7500 Du        
    451 ****       189.0000  -5.7500  50.0000 Du        
    452 ****       189.0000  -5.5000  48.7500 Du        
    453 ****       189.0000  -5.5000  49.0000 Du        
    454 ****       189.0000  -5.5000  49.2500 Du        
    455 ****       189.0000  -5.5000  49.5000 Du        
    456 ****       189.0000  -5.5000  49.7500 Du        
    457 ****       189.0000  -5.5000  50.0000 Du        
    458 ****       189.0000  -5.5000  50.2500 Du        
    459 ****       189.0000  -5.2500  48.7500 Du        
    460 ****       189.0000  -5.2500  49.0000 Du        
    461 ****       189.0000  -5.2500  49.2500 Du        
    462 ****       189.0000  -5.2500  49.5000 Du        
    463 ****       189.0000  -5.2500  49.7500 Du        
    464 ****       189.0000  -5.2500  50.0000 Du        
    465 ****       189.0000  -5.2500  50.2500 Du        
    466 ****       189.0000  -5.2500  50.5000 Du        
    467 ****       189.0000  -5.2500  50.7500 Du        
    468 ****       189.0000  -5.2500  51.0000 Du        
    469 ****       189.0000  -5.0000  48.7500 Du        
    470 ****       189.0000  -5.0000  49.0000 Du        
    471 ****       189.0000  -5.0000  49.2500 Du        
    472 ****       189.0000  -5.0000  49.5000 Du        
    473 ****       189.0000  -5.0000  49.7500 Du        
    474 ****       189.0000  -5.0000  50.0000 Du        
    475 ****       189.0000  -5.0000  50.2500 Du        
    476 ****       189.0000  -5.0000  50.5000 Du        
    477 ****       189.0000  -5.0000  50.7500 Du        
    478 ****       189.0000  -5.0000  51.0000 Du        
    479 ****       189.0000  -5.0000  51.2500 Du        
    480 ****       189.0000  -4.7500  48.7500 Du        
    481 ****       189.0000  -4.7500  49.0000 Du        
    482 ****       189.0000  -4.7500  49.2500 Du        
    483 ****       189.0000  -4.7500  49.5000 Du        
    484 ****       189.0000  -4.7500  49.7500 Du        
    485 ****       189.0000  -4.7500  50.0000 Du        
    486 ****       189.0000  -4.7500  50.2500 Du        
    487 ****       189.0000  -4.7500  50.5000 Du        
    488 ****       189.0000  -4.7500  50.7500 Du        
    489 ****       189.0000  -4.7500  51.0000 Du        
    490 ****       189.0000  -4.7500  51.2500 Du        
    491 ****       189.0000  -4.5000  48.7500 Du        
    492 ****       189.0000  -4.5000  49.0000 Du        
    493 ****       189.0000  -4.5000  49.2500 Du        
    494 ****       189.0000  -4.5000  49.5000 Du        
    495 ****       189.0000  -4.5000  49.7500 Du        
    496 ****       189.0000  -4.5000  50.0000 Du        
    497 ****       189.0000  -4.5000  50.2500 Du        
    498 ****       189.0000  -4.5000  50.5000 Du        
    499 ****       189.0000  -4.5000  50.7500 Du        
    500 ****       189.0000  -4.5000  51.0000 Du        
    501 ****       189.0000  -4.5000  51.2500 Du        
    502 ****       189.0000  -4.5000  51.5000 Du        
    503 ****       189.0000  -4.2500  48.7500 Du        
    504 ****       189.0000  -4.2500  49.0000 Du        
    505 ****       189.0000  -4.2500  49.2500 Du        
    506 ****       189.0000  -4.2500  49.5000 Du        
    507 ****       189.0000  -4.2500  49.7500 Du        
    508 ****       189.0000  -4.2500  50.0000 Du        
    509 ****       189.0000  -4.2500  50.2500 Du        
    510 ****       189.0000  -4.2500  50.5000 Du        
    511 ****       189.0000  -4.2500  50.7500 Du        
    512 ****       189.0000  -4.2500  51.0000 Du        
    513 ****       189.0000  -4.2500  51.2500 Du        
    514 ****       189.0000  -4.2500  51.5000 Du        
    515 ****       189.0000  -4.2500  51.7500 Du        
    516 ****       189.0000  -4.0000  48.7500 Du        
    517 ****       189.0000  -4.0000  49.0000 Du        
    518 ****       189.0000  -4.0000  49.2500 Du        
    519 ****       189.0000  -4.0000  49.5000 Du        
    520 ****       189.0000  -4.0000  49.7500 Du        
    521 ****       189.0000  -4.0000  50.0000 Du        
    522 ****       189.0000  -4.0000  50.2500 Du        
    523 ****       189.0000  -4.0000  50.5000 Du        
    524 ****       189.0000  -4.0000  50.7500 Du        
    525 ****       189.0000  -4.0000  51.0000 Du        
    526 ****       189.0000  -4.0000  51.2500 Du        
    527 ****       189.0000  -4.0000  51.5000 Du        
    528 ****       189.0000  -4.0000  51.7500 Du        
    529 ****       189.0000  -4.0000  52.0000 Du        
    530 ****       189.0000  -4.0000  52.2500 Du        
    531 ****       189.0000  -3.7500  48.7500 Du        
    532 ****       189.0000  -3.7500  49.0000 Du        
    533 ****       189.0000  -3.7500  49.2500 Du        
    534 ****       189.0000  -3.7500  49.5000 Du        
    535 ****       189.0000  -3.7500  49.7500 Du        
    536 ****       189.0000  -3.7500  50.0000 Du        
    537 ****       189.0000  -3.7500  50.2500 Du        
    538 ****       189.0000  -3.7500  50.5000 Du        
    539 ****       189.0000  -3.7500  50.7500 Du        
    540 ****       189.0000  -3.7500  51.0000 Du        
    541 ****       189.0000  -3.7500  51.2500 Du        
    542 ****       189.0000  -3.7500  51.5000 Du        
    543 ****       189.0000  -3.7500  51.7500 Du        
    544 ****       189.0000  -3.7500  52.0000 Du        
    545 ****       189.0000  -3.7500  52.2500 Du        
    546 ****       189.0000  -3.5000  48.7500 Du        
    547 ****       189.0000  -3.5000  49.0000 Du        
    548 ****       189.0000  -3.5000  49.2500 Du        
    549 ****       189.0000  -3.5000  49.5000 Du        
    550 ****       189.0000  -3.5000  49.7500 Du        
    551 ****       189.0000  -3.5000  50.0000 Du        
    552 ****       189.0000  -3.5000  50.2500 Du        
    553 ****       189.0000  -3.5000  50.5000 Du        
    554 ****       189.0000  -3.5000  50.7500 Du        
    555 ****       189.0000  -3.5000  51.0000 Du        
    556 ****       189.0000  -3.5000  51.2500 Du        
    557 ****       189.0000  -3.5000  51.5000 Du        
    558 ****       189.0000  -3.5000  51.7500 Du        
    559 ****       189.0000  -3.5000  52.0000 Du        
    560 ****       189.0000  -3.5000  52.2500 Du        
    561 ****       189.0000  -3.2500  48.7500 Du        
    562 ****       189.0000  -3.2500  49.0000 Du        
    563 ****       189.0000  -3.2500  49.2500 Du        
    564 ****       189.0000  -3.2500  49.5000 Du        
    565 ****       189.0000  -3.2500  49.7500 Du        
    566 ****       189.0000  -3.2500  50.0000 Du        
    567 ****       189.0000  -3.2500  50.2500 Du        
    568 ****       189.0000  -3.2500  50.5000 Du        
    569 ****       189.0000  -3.2500  50.7500 Du        
    570 ****       189.0000  -3.2500  51.0000 Du        
    571 ****       189.0000  -3.2500  51.2500 Du        
    572 ****       189.0000  -3.2500  51.5000 Du        
    573 ****       189.0000  -3.2500  51.7500 Du        
    574 ****       189.0000  -3.2500  52.0000 Du        
    575 ****       189.0000  -3.2500  52.2500 Du        
    576 ****       189.0000  -3.0000  49.0000 Du        
    577 ****       189.0000  -3.0000  49.2500 Du        
    578 ****       189.0000  -3.0000  49.5000 Du        
    579 ****       189.0000  -3.0000  49.7500 Du        
    580 ****       189.0000  -3.0000  50.0000 Du        
    581 ****       189.0000  -3.0000  50.2500 Du        
    582 ****       189.0000  -3.0000  50.5000 Du        
    583 ****       189.0000  -3.0000  50.7500 Du        
    584 ****       189.0000  -3.0000  51.0000 Du        
    585 ****       189.0000  -3.0000  51.2500 Du        
    586 ****       189.0000  -3.0000  51.5000 Du        
    587 ****       189.0000  -3.0000  51.7500 Du        
    588 ****       189.0000  -3.0000  52.0000 Du        
    589 ****       189.0000  -3.0000  52.2500 Du        
    590 ****       189.0000  -2.7500  49.2500 Du        
    591 ****       189.0000  -2.7500  49.5000 Du        
    592 ****       189.0000  -2.7500  49.7500 Du        
    593 ****       189.0000  -2.7500  50.0000 Du        
    594 ****       189.0000  -2.7500  50.2500 Du        
    595 ****       189.0000  -2.7500  50.5000 Du        
    596 ****       189.0000  -2.7500  50.7500 Du        
    597 ****       189.0000  -2.7500  51.0000 Du        
    598 ****       189.0000  -2.7500  51.2500 Du        
    599 ****       189.0000  -2.7500  51.5000 Du        
    600 ****       189.0000  -2.7500  51.7500 Du        
    601 ****       189.0000  -2.7500  52.0000 Du        
    602 ****       189.0000  -2.7500  52.2500 Du        
    603 ****       189.0000  -2.5000  49.5000 Du        
    604 ****       189.0000  -2.5000  49.7500 Du        
    605 ****       189.0000  -2.5000  50.0000 Du        
    606 ****       189.0000  -2.5000  50.2500 Du        
    607 ****       189.0000  -2.5000  50.5000 Du        
    608 ****       189.0000  -2.5000  50.7500 Du        
    609 ****       189.0000  -2.5000  51.0000 Du        
    610 ****       189.0000  -2.5000  51.2500 Du        
    611 ****       189.0000  -2.5000  51.5000 Du        
    612 ****       189.0000  -2.5000  51.7500 Du        
    613 ****       189.0000  -2.5000  52.0000 Du        
    614 ****       189.0000  -2.5000  52.2500 Du        
    615 ****       189.0000  -2.2500  51.7500 Du        
    616 ****       189.0000  -2.2500  52.0000 Du        
    617 ****       189.0000  -2.2500  52.2500 Du        
    618 ****       189.0000  -2.0000  52.2500 Du        
    619 ****       189.2500  -6.7500  37.5000 Du        
    620 ****       189.2500  -6.7500  37.7500 Du        
    621 ****       189.2500  -6.7500  38.0000 Du        
    622 ****       189.2500  -6.5000  37.5000 Du        
    623 ****       189.2500  -6.5000  37.7500 Du        
    624 ****       189.2500  -6.5000  38.0000 Du        
    625 ****       189.2500  -6.5000  38.2500 Du        
    626 ****       189.2500  -6.2500  37.5000 Du        
    627 ****       189.2500  -6.2500  37.7500 Du        
    628 ****       189.2500  -6.2500  38.0000 Du        
    629 ****       189.2500  -6.2500  38.2500 Du        
    630 ****       189.2500  -6.2500  49.0000 Du        
    631 ****       189.2500  -6.2500  49.2500 Du        
    632 ****       189.2500  -6.0000  48.7500 Du        
    633 ****       189.2500  -6.0000  49.0000 Du        
    634 ****       189.2500  -6.0000  49.2500 Du        
    635 ****       189.2500  -6.0000  49.5000 Du        
    636 ****       189.2500  -5.7500  48.7500 Du        
    637 ****       189.2500  -5.7500  49.0000 Du        
    638 ****       189.2500  -5.7500  49.2500 Du        
    639 ****       189.2500  -5.7500  49.5000 Du        
    640 ****       189.2500  -5.7500  49.7500 Du        
    641 ****       189.2500  -5.5000  48.5000 Du        
    642 ****       189.2500  -5.5000  48.7500 Du        
    643 ****       189.2500  -5.5000  49.0000 Du        
    644 ****       189.2500  -5.5000  49.2500 Du        
    645 ****       189.2500  -5.5000  49.5000 Du        
    646 ****       189.2500  -5.5000  49.7500 Du        
    647 ****       189.2500  -5.5000  50.0000 Du        
    648 ****       189.2500  -5.5000  50.2500 Du        
    649 ****       189.2500  -5.2500  48.5000 Du        
    650 ****       189.2500  -5.2500  48.7500 Du        
    651 ****       189.2500  -5.2500  49.0000 Du        
    652 ****       189.2500  -5.2500  49.2500 Du        
    653 ****       189.2500  -5.2500  49.5000 Du        
    654 ****       189.2500  -5.2500  49.7500 Du        
    655 ****       189.2500  -5.2500  50.0000 Du        
    656 ****       189.2500  -5.2500  50.2500 Du        
    657 ****       189.2500  -5.2500  50.5000 Du        
    658 ****       189.2500  -5.2500  50.7500 Du        
    659 ****       189.2500  -5.0000  48.5000 Du        
    660 ****       189.2500  -5.0000  48.7500 Du        
    661 ****       189.2500  -5.0000  49.0000 Du        
    662 ****       189.2500  -5.0000  49.2500 Du        
    663 ****       189.2500  -5.0000  49.5000 Du        
    664 ****       189.2500  -5.0000  49.7500 Du        
    665 ****       189.2500  -5.0000  50.0000 Du        
    666 ****       189.2500  -5.0000  50.2500 Du        
    667 ****       189.2500  -5.0000  50.5000 Du        
    668 ****       189.2500  -5.0000  50.7500 Du        
    669 ****       189.2500  -5.0000  51.0000 Du        
    670 ****       189.2500  -4.7500  48.5000 Du        
    671 ****       189.2500  -4.7500  48.7500 Du        
    672 ****       189.2500  -4.7500  49.0000 Du        
    673 ****       189.2500  -4.7500  49.2500 Du        
    674 ****       189.2500  -4.7500  49.5000 Du        
    675 ****       189.2500  -4.7500  49.7500 Du        
    676 ****       189.2500  -4.7500  50.0000 Du        
    677 ****       189.2500  -4.7500  50.2500 Du        
    678 ****       189.2500  -4.7500  50.5000 Du        
    679 ****       189.2500  -4.7500  50.7500 Du        
    680 ****       189.2500  -4.7500  51.0000 Du        
    681 ****       189.2500  -4.7500  51.2500 Du        
    682 ****       189.2500  -4.5000  48.5000 Du        
    683 ****       189.2500  -4.5000  48.7500 Du        
    684 ****       189.2500  -4.5000  49.0000 Du        
    685 ****       189.2500  -4.5000  49.2500 Du        
    686 ****       189.2500  -4.5000  49.5000 Du        
    687 ****       189.2500  -4.5000  49.7500 Du        
    688 ****       189.2500  -4.5000  50.0000 Du        
    689 ****       189.2500  -4.5000  50.2500 Du        
    690 ****       189.2500  -4.5000  50.5000 Du        
    691 ****       189.2500  -4.5000  50.7500 Du        
    692 ****       189.2500  -4.5000  51.0000 Du        
    693 ****       189.2500  -4.5000  51.2500 Du        
    694 ****       189.2500  -4.2500  48.5000 Du        
    695 ****       189.2500  -4.2500  48.7500 Du        
    696 ****       189.2500  -4.2500  49.0000 Du        
    697 ****       189.2500  -4.2500  49.2500 Du        
    698 ****       189.2500  -4.2500  49.5000 Du        
    699 ****       189.2500  -4.2500  49.7500 Du        
    700 ****       189.2500  -4.2500  50.0000 Du        
    701 ****       189.2500  -4.2500  50.2500 Du        
    702 ****       189.2500  -4.2500  50.5000 Du        
    703 ****       189.2500  -4.2500  50.7500 Du        
    704 ****       189.2500  -4.2500  51.0000 Du        
    705 ****       189.2500  -4.2500  51.2500 Du        
    706 ****       189.2500  -4.2500  51.5000 Du        
    707 ****       189.2500  -4.0000  48.7500 Du        
    708 ****       189.2500  -4.0000  49.0000 Du        
    709 ****       189.2500  -4.0000  49.2500 Du        
    710 ****       189.2500  -4.0000  49.5000 Du        
    711 ****       189.2500  -4.0000  49.7500 Du        
    712 ****       189.2500  -4.0000  50.0000 Du        
    713 ****       189.2500  -4.0000  50.2500 Du        
    714 ****       189.2500  -4.0000  50.5000 Du        
    715 ****       189.2500  -4.0000  50.7500 Du        
    716 ****       189.2500  -4.0000  51.0000 Du        
    717 ****       189.2500  -4.0000  51.2500 Du        
    718 ****       189.2500  -4.0000  51.5000 Du        
    719 ****       189.2500  -4.0000  51.7500 Du        
    720 ****       189.2500  -4.0000  52.0000 Du        
    721 ****       189.2500  -3.7500  48.7500 Du        
    722 ****       189.2500  -3.7500  49.0000 Du        
    723 ****       189.2500  -3.7500  49.2500 Du        
    724 ****       189.2500  -3.7500  49.5000 Du        
    725 ****       189.2500  -3.7500  49.7500 Du        
    726 ****       189.2500  -3.7500  50.0000 Du        
    727 ****       189.2500  -3.7500  50.2500 Du        
    728 ****       189.2500  -3.7500  50.5000 Du        
    729 ****       189.2500  -3.7500  50.7500 Du        
    730 ****       189.2500  -3.7500  51.0000 Du        
    731 ****       189.2500  -3.7500  51.2500 Du        
    732 ****       189.2500  -3.7500  51.5000 Du        
    733 ****       189.2500  -3.7500  51.7500 Du        
    734 ****       189.2500  -3.7500  52.0000 Du        
    735 ****       189.2500  -3.7500  52.2500 Du        
    736 ****       189.2500  -3.5000  48.7500 Du        
    737 ****       189.2500  -3.5000  49.0000 Du        
    738 ****       189.2500  -3.5000  49.2500 Du        
    739 ****       189.2500  -3.5000  49.5000 Du        
    740 ****       189.2500  -3.5000  49.7500 Du        
    741 ****       189.2500  -3.5000  50.0000 Du        
    742 ****       189.2500  -3.5000  50.2500 Du        
    743 ****       189.2500  -3.5000  50.5000 Du        
    744 ****       189.2500  -3.5000  50.7500 Du        
    745 ****       189.2500  -3.5000  51.0000 Du        
    746 ****       189.2500  -3.5000  51.2500 Du        
    747 ****       189.2500  -3.5000  51.5000 Du        
    748 ****       189.2500  -3.5000  51.7500 Du        
    749 ****       189.2500  -3.5000  52.0000 Du        
    750 ****       189.2500  -3.5000  52.2500 Du        
    751 ****       189.2500  -3.2500  49.0000 Du        
    752 ****       189.2500  -3.2500  49.2500 Du        
    753 ****       189.2500  -3.2500  49.5000 Du        
    754 ****       189.2500  -3.2500  49.7500 Du        
    755 ****       189.2500  -3.2500  50.0000 Du        
    756 ****       189.2500  -3.2500  50.2500 Du        
    757 ****       189.2500  -3.2500  50.5000 Du        
    758 ****       189.2500  -3.2500  50.7500 Du        
    759 ****       189.2500  -3.2500  51.0000 Du        
    760 ****       189.2500  -3.2500  51.2500 Du        
    761 ****       189.2500  -3.2500  51.5000 Du        
    762 ****       189.2500  -3.2500  51.7500 Du        
    763 ****       189.2500  -3.2500  52.0000 Du        
    764 ****       189.2500  -3.2500  52.2500 Du        
    765 ****       189.2500  -3.0000  49.0000 Du        
    766 ****       189.2500  -3.0000  49.2500 Du        
    767 ****       189.2500  -3.0000  49.5000 Du        
    768 ****       189.2500  -3.0000  49.7500 Du        
    769 ****       189.2500  -3.0000  50.0000 Du        
    770 ****       189.2500  -3.0000  50.2500 Du        
    771 ****       189.2500  -3.0000  50.5000 Du        
    772 ****       189.2500  -3.0000  50.7500 Du        
    773 ****       189.2500  -3.0000  51.0000 Du        
    774 ****       189.2500  -3.0000  51.2500 Du        
    775 ****       189.2500  -3.0000  51.5000 Du        
    776 ****       189.2500  -3.0000  51.7500 Du        
    777 ****       189.2500  -3.0000  52.0000 Du        
    778 ****       189.2500  -3.0000  52.2500 Du        
    779 ****       189.2500  -2.7500  49.2500 Du        
    780 ****       189.2500  -2.7500  49.5000 Du        
    781 ****       189.2500  -2.7500  49.7500 Du        
    782 ****       189.2500  -2.7500  50.0000 Du        
    783 ****       189.2500  -2.7500  50.2500 Du        
    784 ****       189.2500  -2.7500  50.5000 Du        
    785 ****       189.2500  -2.7500  50.7500 Du        
    786 ****       189.2500  -2.7500  51.0000 Du        
    787 ****       189.2500  -2.7500  51.2500 Du        
    788 ****       189.2500  -2.7500  51.5000 Du        
    789 ****       189.2500  -2.7500  51.7500 Du        
    790 ****       189.2500  -2.7500  52.0000 Du        
    791 ****       189.2500  -2.7500  52.2500 Du        
    792 ****       189.2500  -2.5000  49.5000 Du        
    793 ****       189.2500  -2.5000  49.7500 Du        
    794 ****       189.2500  -2.5000  50.0000 Du        
    795 ****       189.2500  -2.5000  50.2500 Du        
    796 ****       189.2500  -2.5000  50.5000 Du        
    797 ****       189.2500  -2.5000  50.7500 Du        
    798 ****       189.2500  -2.5000  51.0000 Du        
    799 ****       189.2500  -2.5000  51.2500 Du        
    800 ****       189.2500  -2.5000  51.5000 Du        
    801 ****       189.2500  -2.5000  51.7500 Du        
    802 ****       189.2500  -2.5000  52.0000 Du        
    803 ****       189.2500  -2.5000  52.2500 Du        
    804 ****       189.2500  -2.2500  51.2500 Du        
    805 ****       189.2500  -2.2500  51.5000 Du        
    806 ****       189.2500  -2.2500  51.7500 Du        
    807 ****       189.2500  -2.2500  52.0000 Du        
    808 ****       189.2500  -2.2500  52.2500 Du        
    809 ****       189.2500  -2.0000  52.0000 Du        
    810 ****       189.2500  -2.0000  52.2500 Du        
    811 ****       189.5000  -6.7500  37.2500 Du        
    812 ****       189.5000  -6.7500  37.5000 Du        
    813 ****       189.5000  -6.7500  37.7500 Du        
    814 ****       189.5000  -6.7500  38.0000 Du        
    815 ****       189.5000  -6.5000  37.2500 Du        
    816 ****       189.5000  -6.5000  37.5000 Du        
    817 ****       189.5000  -6.5000  37.7500 Du        
    818 ****       189.5000  -6.5000  38.0000 Du        
    819 ****       189.5000  -6.5000  38.2500 Du        
    820 ****       189.5000  -6.2500  37.5000 Du        
    821 ****       189.5000  -6.2500  37.7500 Du        
    822 ****       189.5000  -6.2500  38.0000 Du        
    823 ****       189.5000  -6.2500  38.2500 Du        
    824 ****       189.5000  -6.0000  37.5000 Du        
    825 ****       189.5000  -6.0000  37.7500 Du        
    826 ****       189.5000  -6.0000  38.0000 Du        
    827 ****       189.5000  -5.7500  48.7500 Du        
    828 ****       189.5000  -5.7500  49.0000 Du        
    829 ****       189.5000  -5.7500  49.2500 Du        
    830 ****       189.5000  -5.5000  48.5000 Du        
    831 ****       189.5000  -5.5000  48.7500 Du        
    832 ****       189.5000  -5.5000  49.0000 Du        
    833 ****       189.5000  -5.5000  49.2500 Du        
    834 ****       189.5000  -5.5000  49.5000 Du        
    835 ****       189.5000  -5.5000  49.7500 Du        
    836 ****       189.5000  -5.5000  50.0000 Du        
    837 ****       189.5000  -5.5000  50.2500 Du        
    838 ****       189.5000  -5.2500  48.5000 Du        
    839 ****       189.5000  -5.2500  48.7500 Du        
    840 ****       189.5000  -5.2500  49.0000 Du        
    841 ****       189.5000  -5.2500  49.2500 Du        
    842 ****       189.5000  -5.2500  49.5000 Du        
    843 ****       189.5000  -5.2500  49.7500 Du        
    844 ****       189.5000  -5.2500  50.0000 Du        
    845 ****       189.5000  -5.2500  50.2500 Du        
    846 ****       189.5000  -5.0000  48.5000 Du        
    847 ****       189.5000  -5.0000  48.7500 Du        
    848 ****       189.5000  -5.0000  49.0000 Du        
    849 ****       189.5000  -5.0000  49.2500 Du        
    850 ****       189.5000  -5.0000  49.5000 Du        
    851 ****       189.5000  -5.0000  49.7500 Du        
    852 ****       189.5000  -5.0000  50.0000 Du        
    853 ****       189.5000  -5.0000  50.2500 Du        
    854 ****       189.5000  -5.0000  50.5000 Du        
    855 ****       189.5000  -4.7500  48.5000 Du        
    856 ****       189.5000  -4.7500  48.7500 Du        
    857 ****       189.5000  -4.7500  49.0000 Du        
    858 ****       189.5000  -4.7500  49.2500 Du        
    859 ****       189.5000  -4.7500  49.5000 Du        
    860 ****       189.5000  -4.7500  49.7500 Du        
    861 ****       189.5000  -4.7500  50.0000 Du        
    862 ****       189.5000  -4.7500  50.2500 Du        
    863 ****       189.5000  -4.7500  50.5000 Du        
    864 ****       189.5000  -4.5000  48.5000 Du        
    865 ****       189.5000  -4.5000  48.7500 Du        
    866 ****       189.5000  -4.5000  49.0000 Du        
    867 ****       189.5000  -4.5000  49.2500 Du        
    868 ****       189.5000  -4.5000  49.5000 Du        
    869 ****       189.5000  -4.5000  49.7500 Du        
    870 ****       189.5000  -4.5000  50.0000 Du        
    871 ****       189.5000  -4.5000  50.2500 Du        
    872 ****       189.5000  -4.5000  50.5000 Du        
    873 ****       189.5000  -4.5000  50.7500 Du        
    874 ****       189.5000  -4.5000  51.0000 Du        
    875 ****       189.5000  -4.2500  48.5000 Du        
    876 ****       189.5000  -4.2500  48.7500 Du        
    877 ****       189.5000  -4.2500  49.0000 Du        
    878 ****       189.5000  -4.2500  49.2500 Du        
    879 ****       189.5000  -4.2500  49.5000 Du        
    880 ****       189.5000  -4.2500  49.7500 Du        
    881 ****       189.5000  -4.2500  50.0000 Du        
    882 ****       189.5000  -4.2500  50.2500 Du        
    883 ****       189.5000  -4.2500  50.5000 Du        
    884 ****       189.5000  -4.2500  50.7500 Du        
    885 ****       189.5000  -4.2500  51.0000 Du        
    886 ****       189.5000  -4.0000  48.7500 Du        
    887 ****       189.5000  -4.0000  49.0000 Du        
    888 ****       189.5000  -4.0000  49.2500 Du        
    889 ****       189.5000  -4.0000  49.5000 Du        
    890 ****       189.5000  -4.0000  49.7500 Du        
    891 ****       189.5000  -4.0000  50.0000 Du        
    892 ****       189.5000  -4.0000  50.2500 Du        
    893 ****       189.5000  -4.0000  50.5000 Du        
    894 ****       189.5000  -4.0000  50.7500 Du        
    895 ****       189.5000  -4.0000  51.0000 Du        
    896 ****       189.5000  -3.7500  48.7500 Du        
    897 ****       189.5000  -3.7500  49.0000 Du        
    898 ****       189.5000  -3.7500  49.2500 Du        
    899 ****       189.5000  -3.7500  49.5000 Du        
    900 ****       189.5000  -3.7500  49.7500 Du        
    901 ****       189.5000  -3.7500  50.0000 Du        
    902 ****       189.5000  -3.7500  50.2500 Du        
    903 ****       189.5000  -3.7500  50.5000 Du        
    904 ****       189.5000  -3.7500  50.7500 Du        
    905 ****       189.5000  -3.5000  48.7500 Du        
    906 ****       189.5000  -3.5000  49.0000 Du        
    907 ****       189.5000  -3.5000  49.2500 Du        
    908 ****       189.5000  -3.5000  49.5000 Du        
    909 ****       189.5000  -3.5000  49.7500 Du        
    910 ****       189.5000  -3.5000  50.0000 Du        
    911 ****       189.5000  -3.5000  50.2500 Du        
    912 ****       189.5000  -3.5000  50.5000 Du        
    913 ****       189.5000  -3.5000  50.7500 Du        
    914 ****       189.5000  -3.2500  49.0000 Du        
    915 ****       189.5000  -3.2500  49.2500 Du        
    916 ****       189.5000  -3.2500  49.5000 Du        
    917 ****       189.5000  -3.2500  49.7500 Du        
    918 ****       189.5000  -3.2500  50.0000 Du        
    919 ****       189.5000  -3.2500  50.2500 Du        
    920 ****       189.5000  -3.2500  50.5000 Du        
    921 ****       189.5000  -3.2500  50.7500 Du        
    922 ****       189.5000  -3.0000  49.2500 Du        
    923 ****       189.5000  -3.0000  49.5000 Du        
    924 ****       189.5000  -3.0000  49.7500 Du        
    925 ****       189.5000  -3.0000  50.0000 Du        
    926 ****       189.5000  -3.0000  50.2500 Du        
    927 ****       189.5000  -3.0000  50.5000 Du        
    928 ****       189.5000  -3.0000  50.7500 Du        
    929 ****       189.5000  -3.0000  51.0000 Du        
    930 ****       189.5000  -2.7500  49.7500 Du        
    931 ****       189.5000  -2.7500  50.0000 Du        
    932 ****       189.5000  -2.7500  50.2500 Du        
    933 ****       189.5000  -2.7500  50.5000 Du        
    934 ****       189.5000  -2.7500  50.7500 Du        
    935 ****       189.5000  -2.7500  51.0000 Du        
    936 ****       189.5000  -2.7500  51.2500 Du        
    937 ****       189.5000  -2.7500  52.2500 Du        
    938 ****       189.5000  -2.5000  51.7500 Du        
    939 ****       189.5000  -2.5000  52.0000 Du        
    940 ****       189.5000  -2.5000  52.2500 Du        
    941 ****       189.5000  -2.2500  51.7500 Du        
    942 ****       189.5000  -2.2500  52.0000 Du        
    943 ****       189.5000  -2.2500  52.2500 Du        
    944 ****       189.5000  -2.0000  52.0000 Du        
    945 ****       189.5000  -2.0000  52.2500 Du        
    946 ****       189.5000  -1.7500  52.2500 Du        
    947 ****       189.7500  -7.2500  41.0000 Du        
    948 ****       189.7500  -7.0000  36.7500 Du        
    949 ****       189.7500  -7.0000  37.0000 Du        
    950 ****       189.7500  -7.0000  37.5000 Du        
    951 ****       189.7500  -7.0000  40.0000 Du        
    952 ****       189.7500  -7.0000  40.2500 Du        
    953 ****       189.7500  -7.0000  40.5000 Du        
    954 ****       189.7500  -7.0000  40.7500 Du        
    955 ****       189.7500  -7.0000  41.0000 Du        
    956 ****       189.7500  -6.7500  36.7500 Du        
    957 ****       189.7500  -6.7500  37.0000 Du        
    958 ****       189.7500  -6.7500  37.2500 Du        
    959 ****       189.7500  -6.7500  37.5000 Du        
    960 ****       189.7500  -6.7500  37.7500 Du        
    961 ****       189.7500  -6.5000  37.0000 Du        
    962 ****       189.7500  -6.5000  37.2500 Du        
    963 ****       189.7500  -6.5000  37.5000 Du        
    964 ****       189.7500  -6.5000  37.7500 Du        
    965 ****       189.7500  -6.5000  38.0000 Du        
    966 ****       189.7500  -6.5000  38.2500 Du        
    967 ****       189.7500  -6.2500  37.2500 Du        
    968 ****       189.7500  -6.2500  37.5000 Du        
    969 ****       189.7500  -6.2500  37.7500 Du        
    970 ****       189.7500  -6.2500  38.0000 Du        
    971 ****       189.7500  -6.2500  38.2500 Du        
    972 ****       189.7500  -6.0000  37.5000 Du        
    973 ****       189.7500  -6.0000  37.7500 Du        
    974 ****       189.7500  -6.0000  38.0000 Du        
    975 ****       189.7500  -6.0000  38.2500 Du        
    976 ****       189.7500  -6.0000  48.2500 Du        
    977 ****       189.7500  -6.0000  48.5000 Du        
    978 ****       189.7500  -6.0000  48.7500 Du        
    979 ****       189.7500  -5.7500  37.7500 Du        
    980 ****       189.7500  -5.7500  38.0000 Du        
    981 ****       189.7500  -5.7500  48.2500 Du        
    982 ****       189.7500  -5.7500  48.5000 Du        
    983 ****       189.7500  -5.7500  48.7500 Du        
    984 ****       189.7500  -5.7500  49.0000 Du        
    985 ****       189.7500  -5.7500  49.2500 Du        
    986 ****       189.7500  -5.5000  48.2500 Du        
    987 ****       189.7500  -5.5000  48.5000 Du        
    988 ****       189.7500  -5.5000  48.7500 Du        
    989 ****       189.7500  -5.5000  49.0000 Du        
    990 ****       189.7500  -5.5000  49.2500 Du        
    991 ****       189.7500  -5.5000  49.5000 Du        
    992 ****       189.7500  -5.5000  49.7500 Du        
    993 ****       189.7500  -5.5000  50.0000 Du        
    994 ****       189.7500  -5.5000  50.2500 Du        
    995 ****       189.7500  -5.2500  48.2500 Du        
    996 ****       189.7500  -5.2500  48.5000 Du        
    997 ****       189.7500  -5.2500  48.7500 Du        
    998 ****       189.7500  -5.2500  49.0000 Du        
    999 ****       189.7500  -5.2500  49.2500 Du        
   1000 ****       189.7500  -5.2500  49.5000 Du        
   1001 ****       189.7500  -5.2500  49.7500 Du        
   1002 ****       189.7500  -5.2500  50.0000 Du        
   1003 ****       189.7500  -5.2500  50.2500 Du        
   1004 ****       189.7500  -5.0000  48.2500 Du        
   1005 ****       189.7500  -5.0000  48.5000 Du        
   1006 ****       189.7500  -5.0000  48.7500 Du        
   1007 ****       189.7500  -5.0000  49.0000 Du        
   1008 ****       189.7500  -5.0000  49.2500 Du        
   1009 ****       189.7500  -5.0000  49.5000 Du        
   1010 ****       189.7500  -5.0000  49.7500 Du        
   1011 ****       189.7500  -5.0000  50.0000 Du        
   1012 ****       189.7500  -5.0000  50.2500 Du        
   1013 ****       189.7500  -4.7500  48.2500 Du        
   1014 ****       189.7500  -4.7500  48.5000 Du        
   1015 ****       189.7500  -4.7500  48.7500 Du        
   1016 ****       189.7500  -4.7500  49.0000 Du        
   1017 ****       189.7500  -4.7500  49.2500 Du        
   1018 ****       189.7500  -4.7500  49.5000 Du        
   1019 ****       189.7500  -4.7500  49.7500 Du        
   1020 ****       189.7500  -4.7500  50.0000 Du        
   1021 ****       189.7500  -4.7500  50.2500 Du        
   1022 ****       189.7500  -4.5000  48.2500 Du        
   1023 ****       189.7500  -4.5000  48.5000 Du        
   1024 ****       189.7500  -4.5000  48.7500 Du        
   1025 ****       189.7500  -4.5000  49.0000 Du        
   1026 ****       189.7500  -4.5000  49.2500 Du        
   1027 ****       189.7500  -4.5000  49.5000 Du        
   1028 ****       189.7500  -4.5000  49.7500 Du        
   1029 ****       189.7500  -4.5000  50.0000 Du        
   1030 ****       189.7500  -4.5000  50.2500 Du        
   1031 ****       189.7500  -4.5000  50.5000 Du        
   1032 ****       189.7500  -4.2500  48.5000 Du        
   1033 ****       189.7500  -4.2500  48.7500 Du        
   1034 ****       189.7500  -4.2500  49.0000 Du        
   1035 ****       189.7500  -4.2500  49.2500 Du        
   1036 ****       189.7500  -4.2500  49.5000 Du        
   1037 ****       189.7500  -4.2500  49.7500 Du        
   1038 ****       189.7500  -4.2500  50.0000 Du        
   1039 ****       189.7500  -4.2500  50.2500 Du        
   1040 ****       189.7500  -4.0000  48.7500 Du        
   1041 ****       189.7500  -4.0000  49.0000 Du        
   1042 ****       189.7500  -4.0000  49.2500 Du        
   1043 ****       189.7500  -4.0000  49.5000 Du        
   1044 ****       189.7500  -4.0000  49.7500 Du        
   1045 ****       189.7500  -4.0000  50.0000 Du        
   1046 ****       189.7500  -4.0000  50.2500 Du        
   1047 ****       189.7500  -3.7500  48.7500 Du        
   1048 ****       189.7500  -3.7500  49.0000 Du        
   1049 ****       189.7500  -3.7500  49.2500 Du        
   1050 ****       189.7500  -3.7500  49.5000 Du        
   1051 ****       189.7500  -3.7500  49.7500 Du        
   1052 ****       189.7500  -3.7500  50.0000 Du        
   1053 ****       189.7500  -3.7500  50.2500 Du        
   1054 ****       189.7500  -3.5000  49.0000 Du        
   1055 ****       189.7500  -3.5000  49.2500 Du        
   1056 ****       189.7500  -3.5000  49.5000 Du        
   1057 ****       189.7500  -3.5000  49.7500 Du        
   1058 ****       189.7500  -3.5000  50.0000 Du        
   1059 ****       189.7500  -3.5000  50.2500 Du        
   1060 ****       189.7500  -3.2500  49.7500 Du        
   1061 ****       189.7500  -2.0000  52.0000 Du        
   1062 ****       189.7500  -2.0000  52.2500 Du        
   1063 ****       189.7500  -1.7500  52.0000 Du        
   1064 ****       189.7500  -1.7500  52.2500 Du        
   1065 ****       189.7500  -1.5000  52.2500 Du        
   1066 ****       190.0000  -7.2500  41.0000 Du        
   1067 ****       190.0000  -7.2500  41.2500 Du        
   1068 ****       190.0000  -7.0000  36.2500 Du        
   1069 ****       190.0000  -7.0000  36.5000 Du        
   1070 ****       190.0000  -7.0000  36.7500 Du        
   1071 ****       190.0000  -7.0000  37.0000 Du        
   1072 ****       190.0000  -7.0000  37.2500 Du        
   1073 ****       190.0000  -7.0000  37.5000 Du        
   1074 ****       190.0000  -7.0000  40.2500 Du        
   1075 ****       190.0000  -7.0000  40.5000 Du        
   1076 ****       190.0000  -7.0000  40.7500 Du        
   1077 ****       190.0000  -7.0000  41.0000 Du        
   1078 ****       190.0000  -7.0000  41.2500 Du        
   1079 ****       190.0000  -7.0000  41.5000 Du        
   1080 ****       190.0000  -6.7500  36.5000 Du        
   1081 ****       190.0000  -6.7500  36.7500 Du        
   1082 ****       190.0000  -6.7500  37.0000 Du        
   1083 ****       190.0000  -6.7500  37.2500 Du        
   1084 ****       190.0000  -6.7500  37.5000 Du        
   1085 ****       190.0000  -6.7500  37.7500 Du        
   1086 ****       190.0000  -6.7500  40.2500 Du        
   1087 ****       190.0000  -6.7500  40.5000 Du        
   1088 ****       190.0000  -6.7500  40.7500 Du        
   1089 ****       190.0000  -6.7500  41.0000 Du        
   1090 ****       190.0000  -6.7500  41.2500 Du        
   1091 ****       190.0000  -6.5000  36.7500 Du        
   1092 ****       190.0000  -6.5000  37.0000 Du        
   1093 ****       190.0000  -6.5000  37.2500 Du        
   1094 ****       190.0000  -6.5000  37.5000 Du        
   1095 ****       190.0000  -6.5000  37.7500 Du        
   1096 ****       190.0000  -6.5000  38.0000 Du        
   1097 ****       190.0000  -6.5000  41.2500 Du        
   1098 ****       190.0000  -6.2500  37.0000 Du        
   1099 ****       190.0000  -6.2500  37.2500 Du        
   1100 ****       190.0000  -6.2500  37.5000 Du        
   1101 ****       190.0000  -6.2500  37.7500 Du        
   1102 ****       190.0000  -6.2500  38.0000 Du        
   1103 ****       190.0000  -6.2500  38.2500 Du        
   1104 ****       190.0000  -6.0000  37.2500 Du        
   1105 ****       190.0000  -6.0000  37.5000 Du        
   1106 ****       190.0000  -6.0000  37.7500 Du        
   1107 ****       190.0000  -6.0000  38.0000 Du        
   1108 ****       190.0000  -6.0000  38.2500 Du        
   1109 ****       190.0000  -6.0000  48.0000 Du        
   1110 ****       190.0000  -6.0000  48.2500 Du        
   1111 ****       190.0000  -6.0000  48.5000 Du        
   1112 ****       190.0000  -6.0000  48.7500 Du        
   1113 ****       190.0000  -6.0000  49.0000 Du        
   1114 ****       190.0000  -5.7500  37.5000 Du        
   1115 ****       190.0000  -5.7500  37.7500 Du        
   1116 ****       190.0000  -5.7500  38.0000 Du        
   1117 ****       190.0000  -5.7500  48.0000 Du        
   1118 ****       190.0000  -5.7500  48.2500 Du        
   1119 ****       190.0000  -5.7500  48.5000 Du        
   1120 ****       190.0000  -5.7500  48.7500 Du        
   1121 ****       190.0000  -5.7500  49.0000 Du        
   1122 ****       190.0000  -5.7500  49.2500 Du        
   1123 ****       190.0000  -5.7500  49.5000 Du        
   1124 ****       190.0000  -5.5000  37.7500 Du        
   1125 ****       190.0000  -5.5000  47.7500 Du        
   1126 ****       190.0000  -5.5000  48.0000 Du        
   1127 ****       190.0000  -5.5000  48.2500 Du        
   1128 ****       190.0000  -5.5000  48.5000 Du        
   1129 ****       190.0000  -5.5000  48.7500 Du        
   1130 ****       190.0000  -5.5000  49.0000 Du        
   1131 ****       190.0000  -5.5000  49.2500 Du        
   1132 ****       190.0000  -5.5000  49.5000 Du        
   1133 ****       190.0000  -5.5000  49.7500 Du        
   1134 ****       190.0000  -5.5000  50.0000 Du        
   1135 ****       190.0000  -5.5000  50.2500 Du        
   1136 ****       190.0000  -5.2500  48.0000 Du        
   1137 ****       190.0000  -5.2500  48.2500 Du        
   1138 ****       190.0000  -5.2500  48.5000 Du        
   1139 ****       190.0000  -5.2500  48.7500 Du        
   1140 ****       190.0000  -5.2500  49.0000 Du        
   1141 ****       190.0000  -5.2500  49.2500 Du        
   1142 ****       190.0000  -5.2500  49.5000 Du        
   1143 ****       190.0000  -5.2500  49.7500 Du        
   1144 ****       190.0000  -5.2500  50.0000 Du        
   1145 ****       190.0000  -5.2500  50.2500 Du        
   1146 ****       190.0000  -5.0000  48.0000 Du        
   1147 ****       190.0000  -5.0000  48.2500 Du        
   1148 ****       190.0000  -5.0000  48.5000 Du        
   1149 ****       190.0000  -5.0000  48.7500 Du        
   1150 ****       190.0000  -5.0000  49.0000 Du        
   1151 ****       190.0000  -5.0000  49.2500 Du        
   1152 ****       190.0000  -5.0000  49.5000 Du        
   1153 ****       190.0000  -5.0000  49.7500 Du        
   1154 ****       190.0000  -5.0000  50.0000 Du        
   1155 ****       190.0000  -5.0000  50.2500 Du        
   1156 ****       190.0000  -4.7500  48.2500 Du        
   1157 ****       190.0000  -4.7500  48.5000 Du        
   1158 ****       190.0000  -4.7500  48.7500 Du        
   1159 ****       190.0000  -4.7500  49.0000 Du        
   1160 ****       190.0000  -4.7500  49.2500 Du        
   1161 ****       190.0000  -4.7500  49.5000 Du        
   1162 ****       190.0000  -4.7500  49.7500 Du        
   1163 ****       190.0000  -4.7500  50.0000 Du        
   1164 ****       190.0000  -4.7500  50.2500 Du        
   1165 ****       190.0000  -4.5000  48.2500 Du        
   1166 ****       190.0000  -4.5000  48.5000 Du        
   1167 ****       190.0000  -4.5000  48.7500 Du        
   1168 ****       190.0000  -4.5000  49.0000 Du        
   1169 ****       190.0000  -4.5000  49.2500 Du        
   1170 ****       190.0000  -4.5000  49.5000 Du        
   1171 ****       190.0000  -4.5000  49.7500 Du        
   1172 ****       190.0000  -4.5000  50.0000 Du        
   1173 ****       190.0000  -4.5000  50.2500 Du        
   1174 ****       190.0000  -4.2500  48.5000 Du        
   1175 ****       190.0000  -4.2500  48.7500 Du        
   1176 ****       190.0000  -4.2500  49.0000 Du        
   1177 ****       190.0000  -4.2500  49.2500 Du        
   1178 ****       190.0000  -4.2500  49.5000 Du        
   1179 ****       190.0000  -4.2500  49.7500 Du        
   1180 ****       190.0000  -4.2500  50.0000 Du        
   1181 ****       190.0000  -4.0000  48.7500 Du        
   1182 ****       190.0000  -4.0000  49.0000 Du        
   1183 ****       190.0000  -4.0000  49.2500 Du        
   1184 ****       190.0000  -4.0000  49.5000 Du        
   1185 ****       190.0000  -4.0000  49.7500 Du        
   1186 ****       190.0000  -3.7500  49.2500 Du        
   1187 ****       190.0000  -1.7500  52.2500 Du        
   1188 ****       190.0000  -1.5000  52.2500 Du        
   1189 ****       190.0000  -1.2500  52.2500 Du        
   1190 ****       190.2500  -7.2500  40.7500 Du        
   1191 ****       190.2500  -7.2500  41.2500 Du        
   1192 ****       190.2500  -7.2500  41.5000 Du        
   1193 ****       190.2500  -7.2500  41.7500 Du        
   1194 ****       190.2500  -7.0000  36.2500 Du        
   1195 ****       190.2500  -7.0000  36.5000 Du        
   1196 ****       190.2500  -7.0000  36.7500 Du        
   1197 ****       190.2500  -7.0000  37.0000 Du        
   1198 ****       190.2500  -7.0000  40.7500 Du        
   1199 ****       190.2500  -7.0000  41.0000 Du        
   1200 ****       190.2500  -7.0000  41.2500 Du        
   1201 ****       190.2500  -7.0000  41.5000 Du        
   1202 ****       190.2500  -7.0000  41.7500 Du        
   1203 ****       190.2500  -7.0000  42.0000 Du        
   1204 ****       190.2500  -7.0000  42.2500 Du        
   1205 ****       190.2500  -6.7500  36.2500 Du        
   1206 ****       190.2500  -6.7500  36.5000 Du        
   1207 ****       190.2500  -6.7500  36.7500 Du        
   1208 ****       190.2500  -6.7500  37.0000 Du        
   1209 ****       190.2500  -6.7500  37.2500 Du        
   1210 ****       190.2500  -6.7500  37.5000 Du        
   1211 ****       190.2500  -6.7500  40.7500 Du        
   1212 ****       190.2500  -6.7500  41.0000 Du        
   1213 ****       190.2500  -6.7500  41.2500 Du        
   1214 ****       190.2500  -6.7500  41.5000 Du        
   1215 ****       190.2500  -6.7500  41.7500 Du        
   1216 ****       190.2500  -6.7500  42.0000 Du        
   1217 ****       190.2500  -6.5000  36.5000 Du        
   1218 ****       190.2500  -6.5000  36.7500 Du        
   1219 ****       190.2500  -6.5000  37.0000 Du        
   1220 ****       190.2500  -6.5000  37.2500 Du        
   1221 ****       190.2500  -6.5000  37.5000 Du        
   1222 ****       190.2500  -6.5000  37.7500 Du        
   1223 ****       190.2500  -6.5000  40.7500 Du        
   1224 ****       190.2500  -6.5000  41.0000 Du        
   1225 ****       190.2500  -6.5000  41.2500 Du        
   1226 ****       190.2500  -6.5000  41.5000 Du        
   1227 ****       190.2500  -6.5000  41.7500 Du        
   1228 ****       190.2500  -6.2500  36.7500 Du        
   1229 ****       190.2500  -6.2500  37.0000 Du        
   1230 ****       190.2500  -6.2500  37.2500 Du        
   1231 ****       190.2500  -6.2500  37.5000 Du        
   1232 ****       190.2500  -6.2500  37.7500 Du        
   1233 ****       190.2500  -6.2500  38.0000 Du        
   1234 ****       190.2500  -6.2500  47.7500 Du        
   1235 ****       190.2500  -6.2500  48.0000 Du        
   1236 ****       190.2500  -6.2500  48.2500 Du        
   1237 ****       190.2500  -6.0000  37.2500 Du        
   1238 ****       190.2500  -6.0000  37.5000 Du        
   1239 ****       190.2500  -6.0000  37.7500 Du        
   1240 ****       190.2500  -6.0000  38.0000 Du        
   1241 ****       190.2500  -6.0000  47.7500 Du        
   1242 ****       190.2500  -6.0000  48.0000 Du        
   1243 ****       190.2500  -6.0000  48.2500 Du        
   1244 ****       190.2500  -6.0000  48.5000 Du        
   1245 ****       190.2500  -6.0000  48.7500 Du        
   1246 ****       190.2500  -6.0000  49.0000 Du        
   1247 ****       190.2500  -6.0000  49.2500 Du        
   1248 ****       190.2500  -5.7500  37.5000 Du        
   1249 ****       190.2500  -5.7500  37.7500 Du        
   1250 ****       190.2500  -5.7500  38.0000 Du        
   1251 ****       190.2500  -5.7500  47.7500 Du        
   1252 ****       190.2500  -5.7500  48.0000 Du        
   1253 ****       190.2500  -5.7500  48.2500 Du        
   1254 ****       190.2500  -5.7500  48.5000 Du        
   1255 ****       190.2500  -5.7500  48.7500 Du        
   1256 ****       190.2500  -5.7500  49.0000 Du        
   1257 ****       190.2500  -5.7500  49.2500 Du        
   1258 ****       190.2500  -5.5000  37.7500 Du        
   1259 ****       190.2500  -5.5000  38.0000 Du        
   1260 ****       190.2500  -5.5000  47.7500 Du        
   1261 ****       190.2500  -5.5000  48.0000 Du        
   1262 ****       190.2500  -5.5000  48.2500 Du        
   1263 ****       190.2500  -5.5000  48.5000 Du        
   1264 ****       190.2500  -5.5000  48.7500 Du        
   1265 ****       190.2500  -5.5000  49.0000 Du        
   1266 ****       190.2500  -5.5000  49.2500 Du        
   1267 ****       190.2500  -5.5000  49.5000 Du        
   1268 ****       190.2500  -5.5000  49.7500 Du        
   1269 ****       190.2500  -5.2500  47.7500 Du        
   1270 ****       190.2500  -5.2500  48.0000 Du        
   1271 ****       190.2500  -5.2500  48.2500 Du        
   1272 ****       190.2500  -5.2500  48.5000 Du        
   1273 ****       190.2500  -5.2500  48.7500 Du        
   1274 ****       190.2500  -5.2500  49.0000 Du        
   1275 ****       190.2500  -5.2500  49.2500 Du        
   1276 ****       190.2500  -5.2500  49.5000 Du        
   1277 ****       190.2500  -5.2500  49.7500 Du        
   1278 ****       190.2500  -5.2500  50.0000 Du        
   1279 ****       190.2500  -5.0000  48.0000 Du        
   1280 ****       190.2500  -5.0000  48.2500 Du        
   1281 ****       190.2500  -5.0000  48.5000 Du        
   1282 ****       190.2500  -5.0000  48.7500 Du        
   1283 ****       190.2500  -5.0000  49.0000 Du        
   1284 ****       190.2500  -5.0000  49.2500 Du        
   1285 ****       190.2500  -5.0000  49.5000 Du        
   1286 ****       190.2500  -5.0000  49.7500 Du        
   1287 ****       190.2500  -4.7500  48.2500 Du        
   1288 ****       190.2500  -4.7500  48.5000 Du        
   1289 ****       190.2500  -4.7500  48.7500 Du        
   1290 ****       190.2500  -4.7500  49.0000 Du        
   1291 ****       190.2500  -4.7500  49.2500 Du        
   1292 ****       190.2500  -4.7500  49.5000 Du        
   1293 ****       190.2500  -4.7500  49.7500 Du        
   1294 ****       190.2500  -4.5000  48.5000 Du        
   1295 ****       190.2500  -4.5000  48.7500 Du        
   1296 ****       190.2500  -4.5000  49.0000 Du        
   1297 ****       190.2500  -4.5000  49.2500 Du        
   1298 ****       190.2500  -4.5000  49.5000 Du        
   1299 ****       190.2500  -4.2500  49.0000 Du        
   1300 ****       190.2500  -4.2500  49.2500 Du        
   1301 ****       190.5000  -7.2500  41.5000 Du        
   1302 ****       190.5000  -7.2500  41.7500 Du        
   1303 ****       190.5000  -7.2500  42.0000 Du        
   1304 ****       190.5000  -7.2500  42.2500 Du        
   1305 ****       190.5000  -7.2500  42.5000 Du        
   1306 ****       190.5000  -7.0000  41.0000 Du        
   1307 ****       190.5000  -7.0000  41.2500 Du        
   1308 ****       190.5000  -7.0000  41.5000 Du        
   1309 ****       190.5000  -7.0000  41.7500 Du        
   1310 ****       190.5000  -7.0000  42.0000 Du        
   1311 ****       190.5000  -7.0000  42.2500 Du        
   1312 ****       190.5000  -7.0000  42.5000 Du        
   1313 ****       190.5000  -7.0000  42.7500 Du        
   1314 ****       190.5000  -6.7500  36.7500 Du        
   1315 ****       190.5000  -6.7500  41.0000 Du        
   1316 ****       190.5000  -6.7500  41.2500 Du        
   1317 ****       190.5000  -6.7500  41.5000 Du        
   1318 ****       190.5000  -6.7500  41.7500 Du        
   1319 ****       190.5000  -6.7500  42.0000 Du        
   1320 ****       190.5000  -6.7500  42.2500 Du        
   1321 ****       190.5000  -6.7500  42.5000 Du        
   1322 ****       190.5000  -6.5000  36.2500 Du        
   1323 ****       190.5000  -6.5000  36.5000 Du        
   1324 ****       190.5000  -6.5000  36.7500 Du        
   1325 ****       190.5000  -6.5000  37.0000 Du        
   1326 ****       190.5000  -6.5000  37.2500 Du        
   1327 ****       190.5000  -6.5000  41.0000 Du        
   1328 ****       190.5000  -6.5000  41.2500 Du        
   1329 ****       190.5000  -6.5000  41.5000 Du        
   1330 ****       190.5000  -6.5000  41.7500 Du        
   1331 ****       190.5000  -6.5000  42.0000 Du        
   1332 ****       190.5000  -6.5000  42.2500 Du        
   1333 ****       190.5000  -6.5000  47.7500 Du        
   1334 ****       190.5000  -6.5000  48.0000 Du        
   1335 ****       190.5000  -6.2500  36.7500 Du        
   1336 ****       190.5000  -6.2500  37.0000 Du        
   1337 ****       190.5000  -6.2500  37.2500 Du        
   1338 ****       190.5000  -6.2500  47.2500 Du        
   1339 ****       190.5000  -6.2500  47.5000 Du        
   1340 ****       190.5000  -6.2500  47.7500 Du        
   1341 ****       190.5000  -6.2500  48.0000 Du        
   1342 ****       190.5000  -6.2500  48.2500 Du        
   1343 ****       190.5000  -6.0000  37.0000 Du        
   1344 ****       190.5000  -6.0000  37.2500 Du        
   1345 ****       190.5000  -6.0000  37.5000 Du        
   1346 ****       190.5000  -6.0000  37.7500 Du        
   1347 ****       190.5000  -6.0000  47.2500 Du        
   1348 ****       190.5000  -6.0000  47.5000 Du        
   1349 ****       190.5000  -6.0000  47.7500 Du        
   1350 ****       190.5000  -6.0000  48.0000 Du        
   1351 ****       190.5000  -6.0000  48.2500 Du        
   1352 ****       190.5000  -6.0000  48.5000 Du        
   1353 ****       190.5000  -6.0000  48.7500 Du        
   1354 ****       190.5000  -6.0000  49.0000 Du        
   1355 ****       190.5000  -6.0000  49.2500 Du        
   1356 ****       190.5000  -5.7500  37.2500 Du        
   1357 ****       190.5000  -5.7500  37.5000 Du        
   1358 ****       190.5000  -5.7500  37.7500 Du        
   1359 ****       190.5000  -5.7500  47.2500 Du        
   1360 ****       190.5000  -5.7500  47.5000 Du        
   1361 ****       190.5000  -5.7500  47.7500 Du        
   1362 ****       190.5000  -5.7500  48.0000 Du        
   1363 ****       190.5000  -5.7500  48.2500 Du        
   1364 ****       190.5000  -5.7500  48.5000 Du        
   1365 ****       190.5000  -5.7500  48.7500 Du        
   1366 ****       190.5000  -5.7500  49.0000 Du        
   1367 ****       190.5000  -5.7500  49.2500 Du        
   1368 ****       190.5000  -5.5000  37.5000 Du        
   1369 ****       190.5000  -5.5000  37.7500 Du        
   1370 ****       190.5000  -5.5000  38.0000 Du        
   1371 ****       190.5000  -5.5000  47.5000 Du        
   1372 ****       190.5000  -5.5000  47.7500 Du        
   1373 ****       190.5000  -5.5000  48.0000 Du        
   1374 ****       190.5000  -5.5000  48.2500 Du        
   1375 ****       190.5000  -5.5000  48.5000 Du        
   1376 ****       190.5000  -5.5000  48.7500 Du        
   1377 ****       190.5000  -5.5000  49.0000 Du        
   1378 ****       190.5000  -5.5000  49.2500 Du        
   1379 ****       190.5000  -5.5000  49.5000 Du        
   1380 ****       190.5000  -5.2500  37.7500 Du        
   1381 ****       190.5000  -5.2500  47.7500 Du        
   1382 ****       190.5000  -5.2500  48.0000 Du        
   1383 ****       190.5000  -5.2500  48.2500 Du        
   1384 ****       190.5000  -5.2500  48.5000 Du        
   1385 ****       190.5000  -5.2500  48.7500 Du        
   1386 ****       190.5000  -5.2500  49.0000 Du        
   1387 ****       190.5000  -5.2500  49.2500 Du        
   1388 ****       190.5000  -5.2500  49.5000 Du        
   1389 ****       190.5000  -5.0000  48.0000 Du        
   1390 ****       190.5000  -5.0000  48.2500 Du        
   1391 ****       190.5000  -5.0000  48.5000 Du        
   1392 ****       190.5000  -5.0000  48.7500 Du        
   1393 ****       190.5000  -5.0000  49.0000 Du        
   1394 ****       190.5000  -5.0000  49.2500 Du        
   1395 ****       190.5000  -4.7500  48.5000 Du        
   1396 ****       190.5000  -4.7500  48.7500 Du        
   1397 ****       190.5000  -4.7500  49.0000 Du        
   1398 ****       190.5000  -4.7500  49.2500 Du        
   1399 ****       190.7500  -7.5000  42.0000 Du        
   1400 ****       190.7500  -7.2500  41.5000 Du        
   1401 ****       190.7500  -7.2500  41.7500 Du        
   1402 ****       190.7500  -7.2500  42.0000 Du        
   1403 ****       190.7500  -7.2500  42.2500 Du        
   1404 ****       190.7500  -7.2500  42.5000 Du        
   1405 ****       190.7500  -7.2500  42.7500 Du        
   1406 ****       190.7500  -7.2500  43.0000 Du        
   1407 ****       190.7500  -7.0000  41.2500 Du        
   1408 ****       190.7500  -7.0000  41.5000 Du        
   1409 ****       190.7500  -7.0000  41.7500 Du        
   1410 ****       190.7500  -7.0000  42.0000 Du        
   1411 ****       190.7500  -7.0000  42.2500 Du        
   1412 ****       190.7500  -7.0000  42.5000 Du        
   1413 ****       190.7500  -7.0000  42.7500 Du        
   1414 ****       190.7500  -7.0000  43.0000 Du        
   1415 ****       190.7500  -7.0000  43.2500 Du        
   1416 ****       190.7500  -6.7500  41.2500 Du        
   1417 ****       190.7500  -6.7500  41.5000 Du        
   1418 ****       190.7500  -6.7500  41.7500 Du        
   1419 ****       190.7500  -6.7500  42.0000 Du        
   1420 ****       190.7500  -6.7500  42.2500 Du        
   1421 ****       190.7500  -6.7500  42.5000 Du        
   1422 ****       190.7500  -6.7500  42.7500 Du        
   1423 ****       190.7500  -6.7500  43.0000 Du        
   1424 ****       190.7500  -6.7500  43.2500 Du        
   1425 ****       190.7500  -6.5000  36.2500 Du        
   1426 ****       190.7500  -6.5000  36.5000 Du        
   1427 ****       190.7500  -6.5000  36.7500 Du        
   1428 ****       190.7500  -6.5000  41.0000 Du        
   1429 ****       190.7500  -6.5000  41.2500 Du        
   1430 ****       190.7500  -6.5000  41.5000 Du        
   1431 ****       190.7500  -6.5000  41.7500 Du        
   1432 ****       190.7500  -6.5000  42.0000 Du        
   1433 ****       190.7500  -6.5000  42.2500 Du        
   1434 ****       190.7500  -6.5000  42.5000 Du        
   1435 ****       190.7500  -6.5000  42.7500 Du        
   1436 ****       190.7500  -6.5000  43.0000 Du        
   1437 ****       190.7500  -6.5000  47.0000 Du        
   1438 ****       190.7500  -6.5000  47.2500 Du        
   1439 ****       190.7500  -6.5000  47.5000 Du        
   1440 ****       190.7500  -6.5000  47.7500 Du        
   1441 ****       190.7500  -6.5000  48.0000 Du        
   1442 ****       190.7500  -6.5000  48.2500 Du        
   1443 ****       190.7500  -6.2500  36.5000 Du        
   1444 ****       190.7500  -6.2500  36.7500 Du        
   1445 ****       190.7500  -6.2500  37.0000 Du        
   1446 ****       190.7500  -6.2500  41.5000 Du        
   1447 ****       190.7500  -6.2500  41.7500 Du        
   1448 ****       190.7500  -6.2500  46.7500 Du        
   1449 ****       190.7500  -6.2500  47.0000 Du        
   1450 ****       190.7500  -6.2500  47.2500 Du        
   1451 ****       190.7500  -6.2500  47.5000 Du        
   1452 ****       190.7500  -6.2500  47.7500 Du        
   1453 ****       190.7500  -6.2500  48.0000 Du        
   1454 ****       190.7500  -6.2500  48.2500 Du        
   1455 ****       190.7500  -6.2500  48.5000 Du        
   1456 ****       190.7500  -6.2500  48.7500 Du        
   1457 ****       190.7500  -6.0000  36.7500 Du        
   1458 ****       190.7500  -6.0000  37.0000 Du        
   1459 ****       190.7500  -6.0000  37.2500 Du        
   1460 ****       190.7500  -6.0000  47.0000 Du        
   1461 ****       190.7500  -6.0000  47.2500 Du        
   1462 ****       190.7500  -6.0000  47.5000 Du        
   1463 ****       190.7500  -6.0000  47.7500 Du        
   1464 ****       190.7500  -6.0000  48.0000 Du        
   1465 ****       190.7500  -6.0000  48.2500 Du        
   1466 ****       190.7500  -6.0000  48.5000 Du        
   1467 ****       190.7500  -6.0000  48.7500 Du        
   1468 ****       190.7500  -6.0000  49.0000 Du        
   1469 ****       190.7500  -6.0000  49.2500 Du        
   1470 ****       190.7500  -5.7500  37.2500 Du        
   1471 ****       190.7500  -5.7500  47.0000 Du        
   1472 ****       190.7500  -5.7500  47.2500 Du        
   1473 ****       190.7500  -5.7500  47.5000 Du        
   1474 ****       190.7500  -5.7500  47.7500 Du        
   1475 ****       190.7500  -5.7500  48.0000 Du        
   1476 ****       190.7500  -5.7500  48.2500 Du        
   1477 ****       190.7500  -5.7500  48.5000 Du        
   1478 ****       190.7500  -5.7500  48.7500 Du        
   1479 ****       190.7500  -5.7500  49.0000 Du        
   1480 ****       190.7500  -5.7500  49.2500 Du        
   1481 ****       190.7500  -5.5000  37.5000 Du        
   1482 ****       190.7500  -5.5000  47.2500 Du        
   1483 ****       190.7500  -5.5000  47.5000 Du        
   1484 ****       190.7500  -5.5000  47.7500 Du        
   1485 ****       190.7500  -5.5000  48.0000 Du        
   1486 ****       190.7500  -5.5000  48.2500 Du        
   1487 ****       190.7500  -5.5000  48.5000 Du        
   1488 ****       190.7500  -5.5000  48.7500 Du        
   1489 ****       190.7500  -5.5000  49.0000 Du        
   1490 ****       190.7500  -5.5000  49.2500 Du        
   1491 ****       190.7500  -5.5000  49.5000 Du        
   1492 ****       190.7500  -5.2500  47.7500 Du        
   1493 ****       190.7500  -5.2500  48.0000 Du        
   1494 ****       190.7500  -5.2500  48.2500 Du        
   1495 ****       190.7500  -5.2500  48.5000 Du        
   1496 ****       190.7500  -5.2500  48.7500 Du        
   1497 ****       190.7500  -5.2500  49.0000 Du        
   1498 ****       190.7500  -5.2500  49.2500 Du        
   1499 ****       190.7500  -5.0000  48.0000 Du        
   1500 ****       190.7500  -5.0000  48.2500 Du        
   1501 ****       190.7500  -5.0000  48.5000 Du        
   1502 ****       190.7500  -5.0000  48.7500 Du        
   1503 ****       190.7500  -5.0000  49.0000 Du        
   1504 ****       191.0000  -7.5000  42.5000 Du        
   1505 ****       191.0000  -7.5000  42.7500 Du        
   1506 ****       191.0000  -7.5000  43.0000 Du        
   1507 ****       191.0000  -7.5000  43.2500 Du        
   1508 ****       191.0000  -7.2500  41.7500 Du        
   1509 ****       191.0000  -7.2500  42.0000 Du        
   1510 ****       191.0000  -7.2500  42.2500 Du        
   1511 ****       191.0000  -7.2500  42.5000 Du        
   1512 ****       191.0000  -7.2500  42.7500 Du        
   1513 ****       191.0000  -7.2500  43.0000 Du        
   1514 ****       191.0000  -7.2500  43.2500 Du        
   1515 ****       191.0000  -7.2500  43.5000 Du        
   1516 ****       191.0000  -7.0000  41.5000 Du        
   1517 ****       191.0000  -7.0000  41.7500 Du        
   1518 ****       191.0000  -7.0000  42.0000 Du        
   1519 ****       191.0000  -7.0000  42.2500 Du        
   1520 ****       191.0000  -7.0000  42.5000 Du        
   1521 ****       191.0000  -7.0000  42.7500 Du        
   1522 ****       191.0000  -7.0000  43.0000 Du        
   1523 ****       191.0000  -7.0000  43.2500 Du        
   1524 ****       191.0000  -7.0000  43.5000 Du        
   1525 ****       191.0000  -7.0000  43.7500 Du        
   1526 ****       191.0000  -6.7500  41.2500 Du        
   1527 ****       191.0000  -6.7500  41.5000 Du        
   1528 ****       191.0000  -6.7500  41.7500 Du        
   1529 ****       191.0000  -6.7500  42.0000 Du        
   1530 ****       191.0000  -6.7500  42.2500 Du        
   1531 ****       191.0000  -6.7500  42.5000 Du        
   1532 ****       191.0000  -6.7500  42.7500 Du        
   1533 ****       191.0000  -6.7500  43.0000 Du        
   1534 ****       191.0000  -6.7500  43.2500 Du        
   1535 ****       191.0000  -6.7500  43.5000 Du        
   1536 ****       191.0000  -6.7500  43.7500 Du        
   1537 ****       191.0000  -6.7500  44.0000 Du        
   1538 ****       191.0000  -6.5000  41.5000 Du        
   1539 ****       191.0000  -6.5000  41.7500 Du        
   1540 ****       191.0000  -6.5000  42.0000 Du        
   1541 ****       191.0000  -6.5000  42.2500 Du        
   1542 ****       191.0000  -6.5000  42.5000 Du        
   1543 ****       191.0000  -6.5000  42.7500 Du        
   1544 ****       191.0000  -6.5000  43.0000 Du        
   1545 ****       191.0000  -6.5000  43.2500 Du        
   1546 ****       191.0000  -6.5000  43.5000 Du        
   1547 ****       191.0000  -6.5000  43.7500 Du        
   1548 ****       191.0000  -6.5000  44.0000 Du        
   1549 ****       191.0000  -6.5000  46.5000 Du        
   1550 ****       191.0000  -6.5000  46.7500 Du        
   1551 ****       191.0000  -6.5000  47.0000 Du        
   1552 ****       191.0000  -6.5000  47.2500 Du        
   1553 ****       191.0000  -6.5000  47.5000 Du        
   1554 ****       191.0000  -6.5000  47.7500 Du        
   1555 ****       191.0000  -6.5000  48.0000 Du        
   1556 ****       191.0000  -6.5000  48.2500 Du        
   1557 ****       191.0000  -6.5000  48.5000 Du        
   1558 ****       191.0000  -6.2500  36.5000 Du        
   1559 ****       191.0000  -6.2500  36.7500 Du        
   1560 ****       191.0000  -6.2500  41.5000 Du        
   1561 ****       191.0000  -6.2500  41.7500 Du        
   1562 ****       191.0000  -6.2500  42.0000 Du        
   1563 ****       191.0000  -6.2500  42.2500 Du        
   1564 ****       191.0000  -6.2500  42.5000 Du        
   1565 ****       191.0000  -6.2500  46.5000 Du        
   1566 ****       191.0000  -6.2500  46.7500 Du        
   1567 ****       191.0000  -6.2500  47.0000 Du        
   1568 ****       191.0000  -6.2500  47.2500 Du        
   1569 ****       191.0000  -6.2500  47.5000 Du        
   1570 ****       191.0000  -6.2500  47.7500 Du        
   1571 ****       191.0000  -6.2500  48.0000 Du        
   1572 ****       191.0000  -6.2500  48.2500 Du        
   1573 ****       191.0000  -6.2500  48.5000 Du        
   1574 ****       191.0000  -6.2500  48.7500 Du        
   1575 ****       191.0000  -6.2500  49.0000 Du        
   1576 ****       191.0000  -6.0000  36.5000 Du        
   1577 ****       191.0000  -6.0000  36.7500 Du        
   1578 ****       191.0000  -6.0000  46.7500 Du        
   1579 ****       191.0000  -6.0000  47.0000 Du        
   1580 ****       191.0000  -6.0000  47.2500 Du        
   1581 ****       191.0000  -6.0000  47.5000 Du        
   1582 ****       191.0000  -6.0000  47.7500 Du        
   1583 ****       191.0000  -6.0000  48.0000 Du        
   1584 ****       191.0000  -6.0000  48.2500 Du        
   1585 ****       191.0000  -6.0000  48.5000 Du        
   1586 ****       191.0000  -6.0000  48.7500 Du        
   1587 ****       191.0000  -6.0000  49.0000 Du        
   1588 ****       191.0000  -6.0000  49.2500 Du        
   1589 ****       191.0000  -5.7500  47.0000 Du        
   1590 ****       191.0000  -5.7500  47.2500 Du        
   1591 ****       191.0000  -5.7500  47.5000 Du        
   1592 ****       191.0000  -5.7500  47.7500 Du        
   1593 ****       191.0000  -5.7500  48.0000 Du        
   1594 ****       191.0000  -5.7500  48.2500 Du        
   1595 ****       191.0000  -5.7500  48.5000 Du        
   1596 ****       191.0000  -5.7500  48.7500 Du        
   1597 ****       191.0000  -5.7500  49.0000 Du        
   1598 ****       191.0000  -5.7500  49.2500 Du        
   1599 ****       191.0000  -5.5000  47.2500 Du        
   1600 ****       191.0000  -5.5000  47.5000 Du        
   1601 ****       191.0000  -5.5000  47.7500 Du        
   1602 ****       191.0000  -5.5000  48.0000 Du        
   1603 ****       191.0000  -5.5000  48.2500 Du        
   1604 ****       191.0000  -5.5000  48.5000 Du        
   1605 ****       191.0000  -5.5000  48.7500 Du        
   1606 ****       191.0000  -5.5000  49.0000 Du        
   1607 ****       191.0000  -5.5000  49.2500 Du        
   1608 ****       191.0000  -5.2500  47.7500 Du        
   1609 ****       191.0000  -5.2500  48.0000 Du        
   1610 ****       191.0000  -5.2500  48.2500 Du        
   1611 ****       191.0000  -5.2500  48.5000 Du        
   1612 ****       191.0000  -5.2500  48.7500 Du        
   1613 ****       191.0000  -5.2500  49.0000 Du        
   1614 ****       191.2500  -7.5000  42.5000 Du        
   1615 ****       191.2500  -7.5000  42.7500 Du        
   1616 ****       191.2500  -7.5000  43.0000 Du        
   1617 ****       191.2500  -7.5000  43.2500 Du        
   1618 ****       191.2500  -7.2500  42.0000 Du        
   1619 ****       191.2500  -7.2500  42.2500 Du        
   1620 ****       191.2500  -7.2500  42.5000 Du        
   1621 ****       191.2500  -7.2500  42.7500 Du        
   1622 ****       191.2500  -7.2500  43.0000 Du        
   1623 ****       191.2500  -7.2500  43.2500 Du        
   1624 ****       191.2500  -7.2500  43.5000 Du        
   1625 ****       191.2500  -7.2500  43.7500 Du        
   1626 ****       191.2500  -7.2500  44.0000 Du        
   1627 ****       191.2500  -7.0000  41.7500 Du        
   1628 ****       191.2500  -7.0000  42.0000 Du        
   1629 ****       191.2500  -7.0000  42.2500 Du        
   1630 ****       191.2500  -7.0000  42.5000 Du        
   1631 ****       191.2500  -7.0000  42.7500 Du        
   1632 ****       191.2500  -7.0000  43.0000 Du        
   1633 ****       191.2500  -7.0000  43.2500 Du        
   1634 ****       191.2500  -7.0000  43.5000 Du        
   1635 ****       191.2500  -7.0000  43.7500 Du        
   1636 ****       191.2500  -7.0000  44.0000 Du        
   1637 ****       191.2500  -7.0000  44.2500 Du        
   1638 ****       191.2500  -7.0000  44.5000 Du        
   1639 ****       191.2500  -6.7500  41.7500 Du        
   1640 ****       191.2500  -6.7500  42.0000 Du        
   1641 ****       191.2500  -6.7500  42.2500 Du        
   1642 ****       191.2500  -6.7500  42.5000 Du        
   1643 ****       191.2500  -6.7500  42.7500 Du        
   1644 ****       191.2500  -6.7500  43.0000 Du        
   1645 ****       191.2500  -6.7500  43.2500 Du        
   1646 ****       191.2500  -6.7500  43.5000 Du        
   1647 ****       191.2500  -6.7500  43.7500 Du        
   1648 ****       191.2500  -6.7500  44.0000 Du        
   1649 ****       191.2500  -6.7500  44.2500 Du        
   1650 ****       191.2500  -6.7500  44.5000 Du        
   1651 ****       191.2500  -6.7500  44.7500 Du        
   1652 ****       191.2500  -6.7500  45.0000 Du        
   1653 ****       191.2500  -6.7500  45.2500 Du        
   1654 ****       191.2500  -6.7500  46.2500 Du        
   1655 ****       191.2500  -6.7500  47.0000 Du        
   1656 ****       191.2500  -6.5000  41.5000 Du        
   1657 ****       191.2500  -6.5000  41.7500 Du        
   1658 ****       191.2500  -6.5000  42.0000 Du        
   1659 ****       191.2500  -6.5000  42.2500 Du        
   1660 ****       191.2500  -6.5000  42.5000 Du        
   1661 ****       191.2500  -6.5000  42.7500 Du        
   1662 ****       191.2500  -6.5000  43.0000 Du        
   1663 ****       191.2500  -6.5000  43.2500 Du        
   1664 ****       191.2500  -6.5000  43.5000 Du        
   1665 ****       191.2500  -6.5000  43.7500 Du        
   1666 ****       191.2500  -6.5000  44.0000 Du        
   1667 ****       191.2500  -6.5000  44.2500 Du        
   1668 ****       191.2500  -6.5000  44.5000 Du        
   1669 ****       191.2500  -6.5000  44.7500 Du        
   1670 ****       191.2500  -6.5000  45.0000 Du        
   1671 ****       191.2500  -6.5000  45.2500 Du        
   1672 ****       191.2500  -6.5000  45.5000 Du        
   1673 ****       191.2500  -6.5000  45.7500 Du        
   1674 ****       191.2500  -6.5000  46.0000 Du        
   1675 ****       191.2500  -6.5000  46.2500 Du        
   1676 ****       191.2500  -6.5000  46.5000 Du        
   1677 ****       191.2500  -6.5000  46.7500 Du        
   1678 ****       191.2500  -6.5000  47.0000 Du        
   1679 ****       191.2500  -6.5000  47.2500 Du        
   1680 ****       191.2500  -6.5000  47.5000 Du        
   1681 ****       191.2500  -6.5000  47.7500 Du        
   1682 ****       191.2500  -6.5000  48.0000 Du        
   1683 ****       191.2500  -6.5000  48.2500 Du        
   1684 ****       191.2500  -6.5000  48.5000 Du        
   1685 ****       191.2500  -6.2500  41.7500 Du        
   1686 ****       191.2500  -6.2500  42.0000 Du        
   1687 ****       191.2500  -6.2500  42.2500 Du        
   1688 ****       191.2500  -6.2500  42.5000 Du        
   1689 ****       191.2500  -6.2500  42.7500 Du        
   1690 ****       191.2500  -6.2500  43.0000 Du        
   1691 ****       191.2500  -6.2500  43.2500 Du        
   1692 ****       191.2500  -6.2500  43.5000 Du        
   1693 ****       191.2500  -6.2500  43.7500 Du        
   1694 ****       191.2500  -6.2500  44.0000 Du        
   1695 ****       191.2500  -6.2500  44.2500 Du        
   1696 ****       191.2500  -6.2500  45.7500 Du        
   1697 ****       191.2500  -6.2500  46.0000 Du        
   1698 ****       191.2500  -6.2500  46.2500 Du        
   1699 ****       191.2500  -6.2500  46.5000 Du        
   1700 ****       191.2500  -6.2500  46.7500 Du        
   1701 ****       191.2500  -6.2500  47.0000 Du        
   1702 ****       191.2500  -6.2500  47.2500 Du        
   1703 ****       191.2500  -6.2500  47.5000 Du        
   1704 ****       191.2500  -6.2500  47.7500 Du        
   1705 ****       191.2500  -6.2500  48.0000 Du        
   1706 ****       191.2500  -6.2500  48.2500 Du        
   1707 ****       191.2500  -6.2500  48.5000 Du        
   1708 ****       191.2500  -6.2500  48.7500 Du        
   1709 ****       191.2500  -6.2500  49.0000 Du        
   1710 ****       191.2500  -6.0000  46.5000 Du        
   1711 ****       191.2500  -6.0000  46.7500 Du        
   1712 ****       191.2500  -6.0000  47.0000 Du        
   1713 ****       191.2500  -6.0000  47.2500 Du        
   1714 ****       191.2500  -6.0000  47.5000 Du        
   1715 ****       191.2500  -6.0000  47.7500 Du        
   1716 ****       191.2500  -6.0000  48.0000 Du        
   1717 ****       191.2500  -6.0000  48.2500 Du        
   1718 ****       191.2500  -6.0000  48.5000 Du        
   1719 ****       191.2500  -6.0000  48.7500 Du        
   1720 ****       191.2500  -6.0000  49.0000 Du        
   1721 ****       191.2500  -5.7500  46.7500 Du        
   1722 ****       191.2500  -5.7500  47.0000 Du        
   1723 ****       191.2500  -5.7500  47.2500 Du        
   1724 ****       191.2500  -5.7500  47.5000 Du        
   1725 ****       191.2500  -5.7500  47.7500 Du        
   1726 ****       191.2500  -5.7500  48.0000 Du        
   1727 ****       191.2500  -5.7500  48.2500 Du        
   1728 ****       191.2500  -5.7500  48.5000 Du        
   1729 ****       191.2500  -5.7500  48.7500 Du        
   1730 ****       191.2500  -5.7500  49.0000 Du        
   1731 ****       191.2500  -5.5000  47.2500 Du        
   1732 ****       191.2500  -5.5000  47.5000 Du        
   1733 ****       191.2500  -5.5000  47.7500 Du        
   1734 ****       191.2500  -5.5000  48.0000 Du        
   1735 ****       191.2500  -5.5000  48.2500 Du        
   1736 ****       191.2500  -5.5000  48.5000 Du        
   1737 ****       191.2500  -5.5000  48.7500 Du        
   1738 ****       191.5000  -7.5000  42.5000 Du        
   1739 ****       191.5000  -7.5000  42.7500 Du        
   1740 ****       191.5000  -7.5000  43.0000 Du        
   1741 ****       191.5000  -7.5000  43.2500 Du        
   1742 ****       191.5000  -7.5000  43.5000 Du        
   1743 ****       191.5000  -7.5000  43.7500 Du        
   1744 ****       191.5000  -7.2500  42.0000 Du        
   1745 ****       191.5000  -7.2500  42.2500 Du        
   1746 ****       191.5000  -7.2500  42.5000 Du        
   1747 ****       191.5000  -7.2500  42.7500 Du        
   1748 ****       191.5000  -7.2500  43.0000 Du        
   1749 ****       191.5000  -7.2500  43.2500 Du        
   1750 ****       191.5000  -7.2500  43.5000 Du        
   1751 ****       191.5000  -7.2500  43.7500 Du        
   1752 ****       191.5000  -7.2500  44.0000 Du        
   1753 ****       191.5000  -7.2500  44.2500 Du        
   1754 ****       191.5000  -7.0000  42.0000 Du        
   1755 ****       191.5000  -7.0000  42.2500 Du        
   1756 ****       191.5000  -7.0000  42.5000 Du        
   1757 ****       191.5000  -7.0000  42.7500 Du        
   1758 ****       191.5000  -7.0000  43.0000 Du        
   1759 ****       191.5000  -7.0000  43.2500 Du        
   1760 ****       191.5000  -7.0000  43.5000 Du        
   1761 ****       191.5000  -7.0000  43.7500 Du        
   1762 ****       191.5000  -7.0000  44.0000 Du        
   1763 ****       191.5000  -7.0000  44.2500 Du        
   1764 ****       191.5000  -7.0000  44.5000 Du        
   1765 ****       191.5000  -7.0000  44.7500 Du        
   1766 ****       191.5000  -7.0000  45.0000 Du        
   1767 ****       191.5000  -6.7500  41.7500 Du        
   1768 ****       191.5000  -6.7500  42.0000 Du        
   1769 ****       191.5000  -6.7500  42.2500 Du        
   1770 ****       191.5000  -6.7500  42.5000 Du        
   1771 ****       191.5000  -6.7500  42.7500 Du        
   1772 ****       191.5000  -6.7500  43.0000 Du        
   1773 ****       191.5000  -6.7500  43.2500 Du        
   1774 ****       191.5000  -6.7500  43.5000 Du        
   1775 ****       191.5000  -6.7500  43.7500 Du        
   1776 ****       191.5000  -6.7500  44.0000 Du        
   1777 ****       191.5000  -6.7500  44.2500 Du        
   1778 ****       191.5000  -6.7500  44.5000 Du        
   1779 ****       191.5000  -6.7500  44.7500 Du        
   1780 ****       191.5000  -6.7500  45.0000 Du        
   1781 ****       191.5000  -6.7500  45.2500 Du        
   1782 ****       191.5000  -6.7500  45.5000 Du        
   1783 ****       191.5000  -6.7500  45.7500 Du        
   1784 ****       191.5000  -6.7500  46.0000 Du        
   1785 ****       191.5000  -6.7500  46.2500 Du        
   1786 ****       191.5000  -6.5000  41.7500 Du        
   1787 ****       191.5000  -6.5000  42.0000 Du        
   1788 ****       191.5000  -6.5000  42.2500 Du        
   1789 ****       191.5000  -6.5000  42.5000 Du        
   1790 ****       191.5000  -6.5000  42.7500 Du        
   1791 ****       191.5000  -6.5000  43.0000 Du        
   1792 ****       191.5000  -6.5000  43.2500 Du        
   1793 ****       191.5000  -6.5000  43.5000 Du        
   1794 ****       191.5000  -6.5000  43.7500 Du        
   1795 ****       191.5000  -6.5000  44.0000 Du        
   1796 ****       191.5000  -6.5000  44.2500 Du        
   1797 ****       191.5000  -6.5000  44.5000 Du        
   1798 ****       191.5000  -6.5000  44.7500 Du        
   1799 ****       191.5000  -6.5000  45.0000 Du        
   1800 ****       191.5000  -6.5000  45.2500 Du        
   1801 ****       191.5000  -6.5000  45.5000 Du        
   1802 ****       191.5000  -6.5000  45.7500 Du        
   1803 ****       191.5000  -6.5000  46.0000 Du        
   1804 ****       191.5000  -6.5000  46.2500 Du        
   1805 ****       191.5000  -6.5000  46.5000 Du        
   1806 ****       191.5000  -6.5000  46.7500 Du        
   1807 ****       191.5000  -6.5000  47.0000 Du        
   1808 ****       191.5000  -6.5000  47.2500 Du        
   1809 ****       191.5000  -6.5000  47.5000 Du        
   1810 ****       191.5000  -6.5000  47.7500 Du        
   1811 ****       191.5000  -6.5000  48.0000 Du        
   1812 ****       191.5000  -6.5000  48.2500 Du        
   1813 ****       191.5000  -6.2500  42.0000 Du        
   1814 ****       191.5000  -6.2500  42.2500 Du        
   1815 ****       191.5000  -6.2500  42.5000 Du        
   1816 ****       191.5000  -6.2500  42.7500 Du        
   1817 ****       191.5000  -6.2500  43.0000 Du        
   1818 ****       191.5000  -6.2500  43.2500 Du        
   1819 ****       191.5000  -6.2500  43.5000 Du        
   1820 ****       191.5000  -6.2500  43.7500 Du        
   1821 ****       191.5000  -6.2500  44.0000 Du        
   1822 ****       191.5000  -6.2500  44.2500 Du        
   1823 ****       191.5000  -6.2500  44.5000 Du        
   1824 ****       191.5000  -6.2500  44.7500 Du        
   1825 ****       191.5000  -6.2500  45.0000 Du        
   1826 ****       191.5000  -6.2500  45.2500 Du        
   1827 ****       191.5000  -6.2500  45.5000 Du        
   1828 ****       191.5000  -6.2500  45.7500 Du        
   1829 ****       191.5000  -6.2500  46.0000 Du        
   1830 ****       191.5000  -6.2500  46.2500 Du        
   1831 ****       191.5000  -6.2500  46.5000 Du        
   1832 ****       191.5000  -6.2500  46.7500 Du        
   1833 ****       191.5000  -6.2500  47.0000 Du        
   1834 ****       191.5000  -6.2500  47.2500 Du        
   1835 ****       191.5000  -6.2500  47.5000 Du        
   1836 ****       191.5000  -6.2500  47.7500 Du        
   1837 ****       191.5000  -6.2500  48.0000 Du        
   1838 ****       191.5000  -6.2500  48.2500 Du        
   1839 ****       191.5000  -6.2500  48.5000 Du        
   1840 ****       191.5000  -6.2500  48.7500 Du        
   1841 ****       191.5000  -6.0000  42.5000 Du        
   1842 ****       191.5000  -6.0000  42.7500 Du        
   1843 ****       191.5000  -6.0000  43.0000 Du        
   1844 ****       191.5000  -6.0000  43.2500 Du        
   1845 ****       191.5000  -6.0000  43.5000 Du        
   1846 ****       191.5000  -6.0000  43.7500 Du        
   1847 ****       191.5000  -6.0000  44.0000 Du        
   1848 ****       191.5000  -6.0000  44.2500 Du        
   1849 ****       191.5000  -6.0000  46.0000 Du        
   1850 ****       191.5000  -6.0000  46.2500 Du        
   1851 ****       191.5000  -6.0000  46.5000 Du        
   1852 ****       191.5000  -6.0000  46.7500 Du        
   1853 ****       191.5000  -6.0000  47.0000 Du        
   1854 ****       191.5000  -6.0000  47.2500 Du        
   1855 ****       191.5000  -6.0000  47.5000 Du        
   1856 ****       191.5000  -6.0000  47.7500 Du        
   1857 ****       191.5000  -6.0000  48.0000 Du        
   1858 ****       191.5000  -6.0000  48.2500 Du        
   1859 ****       191.5000  -6.0000  48.5000 Du        
   1860 ****       191.5000  -6.0000  48.7500 Du        
   1861 ****       191.5000  -5.7500  46.7500 Du        
   1862 ****       191.5000  -5.7500  47.0000 Du        
   1863 ****       191.5000  -5.7500  47.2500 Du        
   1864 ****       191.5000  -5.7500  47.5000 Du        
   1865 ****       191.5000  -5.7500  47.7500 Du        
   1866 ****       191.5000  -5.7500  48.0000 Du        
   1867 ****       191.5000  -5.7500  48.2500 Du        
   1868 ****       191.5000  -5.7500  48.5000 Du        
   1869 ****       191.5000  -5.5000  47.2500 Du        
   1870 ****       191.5000  -5.5000  47.5000 Du        
   1871 ****       191.5000  -5.5000  47.7500 Du        
   1872 ****       191.5000  -5.5000  48.0000 Du        
   1873 ****       191.7500  -7.5000  42.5000 Du        
   1874 ****       191.7500  -7.5000  42.7500 Du        
   1875 ****       191.7500  -7.5000  43.0000 Du        
   1876 ****       191.7500  -7.5000  43.2500 Du        
   1877 ****       191.7500  -7.5000  43.5000 Du        
   1878 ****       191.7500  -7.5000  43.7500 Du        
   1879 ****       191.7500  -7.2500  42.2500 Du        
   1880 ****       191.7500  -7.2500  42.5000 Du        
   1881 ****       191.7500  -7.2500  42.7500 Du        
   1882 ****       191.7500  -7.2500  43.0000 Du        
   1883 ****       191.7500  -7.2500  43.2500 Du        
   1884 ****       191.7500  -7.2500  43.5000 Du        
   1885 ****       191.7500  -7.2500  43.7500 Du        
   1886 ****       191.7500  -7.2500  44.0000 Du        
   1887 ****       191.7500  -7.2500  44.2500 Du        
   1888 ****       191.7500  -7.0000  42.0000 Du        
   1889 ****       191.7500  -7.0000  42.2500 Du        
   1890 ****       191.7500  -7.0000  42.5000 Du        
   1891 ****       191.7500  -7.0000  42.7500 Du        
   1892 ****       191.7500  -7.0000  43.0000 Du        
   1893 ****       191.7500  -7.0000  43.2500 Du        
   1894 ****       191.7500  -7.0000  43.5000 Du        
   1895 ****       191.7500  -7.0000  43.7500 Du        
   1896 ****       191.7500  -7.0000  44.0000 Du        
   1897 ****       191.7500  -7.0000  44.2500 Du        
   1898 ****       191.7500  -7.0000  44.5000 Du        
   1899 ****       191.7500  -7.0000  44.7500 Du        
   1900 ****       191.7500  -7.0000  45.0000 Du        
   1901 ****       191.7500  -6.7500  42.0000 Du        
   1902 ****       191.7500  -6.7500  42.2500 Du        
   1903 ****       191.7500  -6.7500  42.5000 Du        
   1904 ****       191.7500  -6.7500  42.7500 Du        
   1905 ****       191.7500  -6.7500  43.0000 Du        
   1906 ****       191.7500  -6.7500  43.2500 Du        
   1907 ****       191.7500  -6.7500  43.5000 Du        
   1908 ****       191.7500  -6.7500  43.7500 Du        
   1909 ****       191.7500  -6.7500  44.0000 Du        
   1910 ****       191.7500  -6.7500  44.2500 Du        
   1911 ****       191.7500  -6.7500  44.5000 Du        
   1912 ****       191.7500  -6.7500  44.7500 Du        
   1913 ****       191.7500  -6.7500  45.0000 Du        
   1914 ****       191.7500  -6.7500  45.2500 Du        
   1915 ****       191.7500  -6.7500  45.5000 Du        
   1916 ****       191.7500  -6.7500  45.7500 Du        
   1917 ****       191.7500  -6.7500  46.0000 Du        
   1918 ****       191.7500  -6.7500  46.2500 Du        
   1919 ****       191.7500  -6.7500  47.5000 Du        
   1920 ****       191.7500  -6.5000  42.0000 Du        
   1921 ****       191.7500  -6.5000  42.2500 Du        
   1922 ****       191.7500  -6.5000  42.5000 Du        
   1923 ****       191.7500  -6.5000  42.7500 Du        
   1924 ****       191.7500  -6.5000  43.0000 Du        
   1925 ****       191.7500  -6.5000  43.2500 Du        
   1926 ****       191.7500  -6.5000  43.5000 Du        
   1927 ****       191.7500  -6.5000  43.7500 Du        
   1928 ****       191.7500  -6.5000  44.0000 Du        
   1929 ****       191.7500  -6.5000  44.2500 Du        
   1930 ****       191.7500  -6.5000  44.5000 Du        
   1931 ****       191.7500  -6.5000  44.7500 Du        
   1932 ****       191.7500  -6.5000  45.0000 Du        
   1933 ****       191.7500  -6.5000  45.2500 Du        
   1934 ****       191.7500  -6.5000  45.5000 Du        
   1935 ****       191.7500  -6.5000  45.7500 Du        
   1936 ****       191.7500  -6.5000  46.0000 Du        
   1937 ****       191.7500  -6.5000  46.2500 Du        
   1938 ****       191.7500  -6.5000  46.5000 Du        
   1939 ****       191.7500  -6.5000  46.7500 Du        
   1940 ****       191.7500  -6.5000  47.0000 Du        
   1941 ****       191.7500  -6.5000  47.2500 Du        
   1942 ****       191.7500  -6.5000  47.5000 Du        
   1943 ****       191.7500  -6.5000  47.7500 Du        
   1944 ****       191.7500  -6.5000  48.0000 Du        
   1945 ****       191.7500  -6.5000  48.2500 Du        
   1946 ****       191.7500  -6.2500  42.0000 Du        
   1947 ****       191.7500  -6.2500  42.2500 Du        
   1948 ****       191.7500  -6.2500  42.5000 Du        
   1949 ****       191.7500  -6.2500  42.7500 Du        
   1950 ****       191.7500  -6.2500  43.0000 Du        
   1951 ****       191.7500  -6.2500  43.2500 Du        
   1952 ****       191.7500  -6.2500  43.5000 Du        
   1953 ****       191.7500  -6.2500  43.7500 Du        
   1954 ****       191.7500  -6.2500  44.0000 Du        
   1955 ****       191.7500  -6.2500  44.2500 Du        
   1956 ****       191.7500  -6.2500  44.5000 Du        
   1957 ****       191.7500  -6.2500  44.7500 Du        
   1958 ****       191.7500  -6.2500  45.0000 Du        
   1959 ****       191.7500  -6.2500  45.2500 Du        
   1960 ****       191.7500  -6.2500  45.5000 Du        
   1961 ****       191.7500  -6.2500  45.7500 Du        
   1962 ****       191.7500  -6.2500  46.0000 Du        
   1963 ****       191.7500  -6.2500  46.2500 Du        
   1964 ****       191.7500  -6.2500  46.5000 Du        
   1965 ****       191.7500  -6.2500  46.7500 Du        
   1966 ****       191.7500  -6.2500  47.0000 Du        
   1967 ****       191.7500  -6.2500  47.2500 Du        
   1968 ****       191.7500  -6.2500  47.5000 Du        
   1969 ****       191.7500  -6.2500  47.7500 Du        
   1970 ****       191.7500  -6.2500  48.0000 Du        
   1971 ****       191.7500  -6.2500  48.2500 Du        
   1972 ****       191.7500  -6.2500  48.5000 Du        
   1973 ****       191.7500  -6.0000  42.2500 Du        
   1974 ****       191.7500  -6.0000  42.5000 Du        
   1975 ****       191.7500  -6.0000  42.7500 Du        
   1976 ****       191.7500  -6.0000  43.0000 Du        
   1977 ****       191.7500  -6.0000  43.2500 Du        
   1978 ****       191.7500  -6.0000  43.5000 Du        
   1979 ****       191.7500  -6.0000  43.7500 Du        
   1980 ****       191.7500  -6.0000  44.0000 Du        
   1981 ****       191.7500  -6.0000  44.2500 Du        
   1982 ****       191.7500  -6.0000  44.5000 Du        
   1983 ****       191.7500  -6.0000  44.7500 Du        
   1984 ****       191.7500  -6.0000  45.0000 Du        
   1985 ****       191.7500  -6.0000  45.2500 Du        
   1986 ****       191.7500  -6.0000  46.0000 Du        
   1987 ****       191.7500  -6.0000  46.2500 Du        
   1988 ****       191.7500  -6.0000  46.5000 Du        
   1989 ****       191.7500  -6.0000  46.7500 Du        
   1990 ****       191.7500  -6.0000  47.0000 Du        
   1991 ****       191.7500  -6.0000  47.2500 Du        
   1992 ****       191.7500  -6.0000  47.5000 Du        
   1993 ****       191.7500  -6.0000  47.7500 Du        
   1994 ****       191.7500  -6.0000  48.0000 Du        
   1995 ****       191.7500  -6.0000  48.2500 Du        
   1996 ****       191.7500  -6.0000  48.5000 Du        
   1997 ****       191.7500  -5.7500  42.7500 Du        
   1998 ****       191.7500  -5.7500  43.0000 Du        
   1999 ****       191.7500  -5.7500  43.2500 Du        
   2000 ****       191.7500  -5.7500  43.5000 Du        
   2001 ****       191.7500  -5.7500  43.7500 Du        
   2002 ****       191.7500  -5.7500  44.0000 Du        
   2003 ****       191.7500  -5.7500  44.2500 Du        
   2004 ****       191.7500  -5.7500  46.7500 Du        
   2005 ****       191.7500  -5.7500  47.0000 Du        
   2006 ****       191.7500  -5.7500  47.2500 Du        
   2007 ****       191.7500  -5.7500  47.5000 Du        
   2008 ****       191.7500  -5.7500  47.7500 Du        
   2009 ****       191.7500  -5.7500  48.0000 Du        
   2010 ****       192.0000  -7.5000  42.7500 Du        
   2011 ****       192.0000  -7.5000  43.0000 Du        
   2012 ****       192.0000  -7.5000  43.5000 Du        
   2013 ****       192.0000  -7.5000  43.7500 Du        
   2014 ****       192.0000  -7.2500  42.5000 Du        
   2015 ****       192.0000  -7.2500  42.7500 Du        
   2016 ****       192.0000  -7.2500  43.0000 Du        
   2017 ****       192.0000  -7.2500  43.2500 Du        
   2018 ****       192.0000  -7.2500  43.5000 Du        
   2019 ****       192.0000  -7.2500  43.7500 Du        
   2020 ****       192.0000  -7.2500  44.0000 Du        
   2021 ****       192.0000  -7.2500  44.2500 Du        
   2022 ****       192.0000  -7.0000  42.2500 Du        
   2023 ****       192.0000  -7.0000  42.5000 Du        
   2024 ****       192.0000  -7.0000  42.7500 Du        
   2025 ****       192.0000  -7.0000  43.0000 Du        
   2026 ****       192.0000  -7.0000  43.2500 Du        
   2027 ****       192.0000  -7.0000  43.5000 Du        
   2028 ****       192.0000  -7.0000  43.7500 Du        
   2029 ****       192.0000  -7.0000  44.0000 Du        
   2030 ****       192.0000  -7.0000  44.2500 Du        
   2031 ****       192.0000  -7.0000  44.5000 Du        
   2032 ****       192.0000  -7.0000  44.7500 Du        
   2033 ****       192.0000  -7.0000  45.0000 Du        
   2034 ****       192.0000  -6.7500  42.2500 Du        
   2035 ****       192.0000  -6.7500  42.5000 Du        
   2036 ****       192.0000  -6.7500  42.7500 Du        
   2037 ****       192.0000  -6.7500  43.0000 Du        
   2038 ****       192.0000  -6.7500  43.2500 Du        
   2039 ****       192.0000  -6.7500  43.5000 Du        
   2040 ****       192.0000  -6.7500  43.7500 Du        
   2041 ****       192.0000  -6.7500  44.0000 Du        
   2042 ****       192.0000  -6.7500  44.2500 Du        
   2043 ****       192.0000  -6.7500  44.5000 Du        
   2044 ****       192.0000  -6.7500  44.7500 Du        
   2045 ****       192.0000  -6.7500  45.0000 Du        
   2046 ****       192.0000  -6.7500  45.2500 Du        
   2047 ****       192.0000  -6.7500  45.5000 Du        
   2048 ****       192.0000  -6.7500  45.7500 Du        
   2049 ****       192.0000  -6.7500  46.0000 Du        
   2050 ****       192.0000  -6.7500  46.2500 Du        
   2051 ****       192.0000  -6.7500  47.5000 Du        
   2052 ****       192.0000  -6.7500  47.7500 Du        
   2053 ****       192.0000  -6.5000  42.2500 Du        
   2054 ****       192.0000  -6.5000  42.5000 Du        
   2055 ****       192.0000  -6.5000  42.7500 Du        
   2056 ****       192.0000  -6.5000  43.0000 Du        
   2057 ****       192.0000  -6.5000  43.2500 Du        
   2058 ****       192.0000  -6.5000  43.5000 Du        
   2059 ****       192.0000  -6.5000  43.7500 Du        
   2060 ****       192.0000  -6.5000  44.0000 Du        
   2061 ****       192.0000  -6.5000  44.2500 Du        
   2062 ****       192.0000  -6.5000  44.5000 Du        
   2063 ****       192.0000  -6.5000  44.7500 Du        
   2064 ****       192.0000  -6.5000  45.0000 Du        
   2065 ****       192.0000  -6.5000  45.2500 Du        
   2066 ****       192.0000  -6.5000  45.5000 Du        
   2067 ****       192.0000  -6.5000  45.7500 Du        
   2068 ****       192.0000  -6.5000  46.0000 Du        
   2069 ****       192.0000  -6.5000  46.2500 Du        
   2070 ****       192.0000  -6.5000  46.5000 Du        
   2071 ****       192.0000  -6.5000  46.7500 Du        
   2072 ****       192.0000  -6.5000  47.0000 Du        
   2073 ****       192.0000  -6.5000  47.2500 Du        
   2074 ****       192.0000  -6.5000  47.5000 Du        
   2075 ****       192.0000  -6.5000  47.7500 Du        
   2076 ****       192.0000  -6.5000  48.0000 Du        
   2077 ****       192.0000  -6.5000  48.2500 Du        
   2078 ****       192.0000  -6.2500  42.2500 Du        
   2079 ****       192.0000  -6.2500  42.5000 Du        
   2080 ****       192.0000  -6.2500  42.7500 Du        
   2081 ****       192.0000  -6.2500  43.0000 Du        
   2082 ****       192.0000  -6.2500  43.2500 Du        
   2083 ****       192.0000  -6.2500  43.5000 Du        
   2084 ****       192.0000  -6.2500  43.7500 Du        
   2085 ****       192.0000  -6.2500  44.0000 Du        
   2086 ****       192.0000  -6.2500  44.2500 Du        
   2087 ****       192.0000  -6.2500  44.5000 Du        
   2088 ****       192.0000  -6.2500  44.7500 Du        
   2089 ****       192.0000  -6.2500  45.0000 Du        
   2090 ****       192.0000  -6.2500  45.2500 Du        
   2091 ****       192.0000  -6.2500  45.5000 Du        
   2092 ****       192.0000  -6.2500  45.7500 Du        
   2093 ****       192.0000  -6.2500  46.0000 Du        
   2094 ****       192.0000  -6.2500  46.2500 Du        
   2095 ****       192.0000  -6.2500  46.5000 Du        
   2096 ****       192.0000  -6.2500  46.7500 Du        
   2097 ****       192.0000  -6.2500  47.0000 Du        
   2098 ****       192.0000  -6.2500  47.2500 Du        
   2099 ****       192.0000  -6.2500  47.5000 Du        
   2100 ****       192.0000  -6.2500  47.7500 Du        
   2101 ****       192.0000  -6.2500  48.0000 Du        
   2102 ****       192.0000  -6.2500  48.2500 Du        
   2103 ****       192.0000  -6.2500  48.5000 Du        
   2104 ****       192.0000  -6.0000  42.2500 Du        
   2105 ****       192.0000  -6.0000  42.5000 Du        
   2106 ****       192.0000  -6.0000  42.7500 Du        
   2107 ****       192.0000  -6.0000  43.0000 Du        
   2108 ****       192.0000  -6.0000  43.2500 Du        
   2109 ****       192.0000  -6.0000  43.5000 Du        
   2110 ****       192.0000  -6.0000  43.7500 Du        
   2111 ****       192.0000  -6.0000  44.0000 Du        
   2112 ****       192.0000  -6.0000  44.2500 Du        
   2113 ****       192.0000  -6.0000  44.5000 Du        
   2114 ****       192.0000  -6.0000  44.7500 Du        
   2115 ****       192.0000  -6.0000  45.0000 Du        
   2116 ****       192.0000  -6.0000  45.2500 Du        
   2117 ****       192.0000  -6.0000  46.0000 Du        
   2118 ****       192.0000  -6.0000  46.2500 Du        
   2119 ****       192.0000  -6.0000  46.5000 Du        
   2120 ****       192.0000  -6.0000  46.7500 Du        
   2121 ****       192.0000  -6.0000  47.0000 Du        
   2122 ****       192.0000  -6.0000  47.2500 Du        
   2123 ****       192.0000  -6.0000  47.5000 Du        
   2124 ****       192.0000  -6.0000  47.7500 Du        
   2125 ****       192.0000  -6.0000  48.0000 Du        
   2126 ****       192.0000  -6.0000  48.2500 Du        
   2127 ****       192.0000  -5.7500  42.5000 Du        
   2128 ****       192.0000  -5.7500  42.7500 Du        
   2129 ****       192.0000  -5.7500  43.0000 Du        
   2130 ****       192.0000  -5.7500  43.2500 Du        
   2131 ****       192.0000  -5.7500  43.5000 Du        
   2132 ****       192.0000  -5.7500  43.7500 Du        
   2133 ****       192.0000  -5.7500  44.0000 Du        
   2134 ****       192.0000  -5.7500  44.2500 Du        
   2135 ****       192.0000  -5.7500  46.7500 Du        
   2136 ****       192.0000  -5.7500  47.0000 Du        
   2137 ****       192.0000  -5.7500  47.2500 Du        
   2138 ****       192.0000  -5.7500  47.5000 Du        
   2139 ****       192.0000  -5.7500  47.7500 Du        
   2140 ****       192.0000  -5.5000  43.0000 Du        
   2141 ****       192.0000  -5.5000  43.2500 Du        
   2142 ****       192.0000  -5.5000  43.5000 Du        
   2143 ****       192.0000  -5.5000  43.7500 Du        
   2144 ****       192.2500  -7.2500  42.7500 Du        
   2145 ****       192.2500  -7.2500  43.0000 Du        
   2146 ****       192.2500  -7.2500  43.2500 Du        
   2147 ****       192.2500  -7.2500  43.5000 Du        
   2148 ****       192.2500  -7.2500  43.7500 Du        
   2149 ****       192.2500  -7.2500  44.0000 Du        
   2150 ****       192.2500  -7.2500  44.2500 Du        
   2151 ****       192.2500  -7.0000  42.5000 Du        
   2152 ****       192.2500  -7.0000  42.7500 Du        
   2153 ****       192.2500  -7.0000  43.0000 Du        
   2154 ****       192.2500  -7.0000  43.2500 Du        
   2155 ****       192.2500  -7.0000  43.5000 Du        
   2156 ****       192.2500  -7.0000  43.7500 Du        
   2157 ****       192.2500  -7.0000  44.0000 Du        
   2158 ****       192.2500  -7.0000  44.2500 Du        
   2159 ****       192.2500  -7.0000  44.5000 Du        
   2160 ****       192.2500  -7.0000  44.7500 Du        
   2161 ****       192.2500  -7.0000  45.0000 Du        
   2162 ****       192.2500  -6.7500  42.5000 Du        
   2163 ****       192.2500  -6.7500  42.7500 Du        
   2164 ****       192.2500  -6.7500  43.0000 Du        
   2165 ****       192.2500  -6.7500  43.2500 Du        
   2166 ****       192.2500  -6.7500  43.5000 Du        
   2167 ****       192.2500  -6.7500  43.7500 Du        
   2168 ****       192.2500  -6.7500  44.0000 Du        
   2169 ****       192.2500  -6.7500  44.2500 Du        
   2170 ****       192.2500  -6.7500  44.5000 Du        
   2171 ****       192.2500  -6.7500  44.7500 Du        
   2172 ****       192.2500  -6.7500  45.0000 Du        
   2173 ****       192.2500  -6.7500  47.7500 Du        
   2174 ****       192.2500  -6.5000  42.5000 Du        
   2175 ****       192.2500  -6.5000  42.7500 Du        
   2176 ****       192.2500  -6.5000  43.0000 Du        
   2177 ****       192.2500  -6.5000  43.2500 Du        
   2178 ****       192.2500  -6.5000  43.5000 Du        
   2179 ****       192.2500  -6.5000  43.7500 Du        
   2180 ****       192.2500  -6.5000  44.0000 Du        
   2181 ****       192.2500  -6.5000  44.2500 Du        
   2182 ****       192.2500  -6.5000  44.5000 Du        
   2183 ****       192.2500  -6.5000  44.7500 Du        
   2184 ****       192.2500  -6.5000  45.0000 Du        
   2185 ****       192.2500  -6.5000  45.2500 Du        
   2186 ****       192.2500  -6.5000  45.5000 Du        
   2187 ****       192.2500  -6.5000  45.7500 Du        
   2188 ****       192.2500  -6.5000  46.0000 Du        
   2189 ****       192.2500  -6.5000  46.2500 Du        
   2190 ****       192.2500  -6.5000  46.5000 Du        
   2191 ****       192.2500  -6.5000  46.7500 Du        
   2192 ****       192.2500  -6.5000  47.0000 Du        
   2193 ****       192.2500  -6.5000  47.2500 Du        
   2194 ****       192.2500  -6.5000  47.5000 Du        
   2195 ****       192.2500  -6.5000  47.7500 Du        
   2196 ****       192.2500  -6.5000  48.0000 Du        
   2197 ****       192.2500  -6.5000  48.2500 Du        
   2198 ****       192.2500  -6.2500  42.5000 Du        
   2199 ****       192.2500  -6.2500  42.7500 Du        
   2200 ****       192.2500  -6.2500  43.0000 Du        
   2201 ****       192.2500  -6.2500  43.2500 Du        
   2202 ****       192.2500  -6.2500  43.5000 Du        
   2203 ****       192.2500  -6.2500  43.7500 Du        
   2204 ****       192.2500  -6.2500  44.0000 Du        
   2205 ****       192.2500  -6.2500  44.2500 Du        
   2206 ****       192.2500  -6.2500  44.5000 Du        
   2207 ****       192.2500  -6.2500  44.7500 Du        
   2208 ****       192.2500  -6.2500  45.0000 Du        
   2209 ****       192.2500  -6.2500  45.2500 Du        
   2210 ****       192.2500  -6.2500  46.0000 Du        
   2211 ****       192.2500  -6.2500  46.2500 Du        
   2212 ****       192.2500  -6.2500  46.5000 Du        
   2213 ****       192.2500  -6.2500  46.7500 Du        
   2214 ****       192.2500  -6.2500  47.0000 Du        
   2215 ****       192.2500  -6.2500  47.2500 Du        
   2216 ****       192.2500  -6.2500  47.5000 Du        
   2217 ****       192.2500  -6.2500  47.7500 Du        
   2218 ****       192.2500  -6.2500  48.0000 Du        
   2219 ****       192.2500  -6.2500  48.2500 Du        
   2220 ****       192.2500  -6.0000  42.5000 Du        
   2221 ****       192.2500  -6.0000  42.7500 Du        
   2222 ****       192.2500  -6.0000  43.0000 Du        
   2223 ****       192.2500  -6.0000  43.2500 Du        
   2224 ****       192.2500  -6.0000  43.5000 Du        
   2225 ****       192.2500  -6.0000  43.7500 Du        
   2226 ****       192.2500  -6.0000  44.0000 Du        
   2227 ****       192.2500  -6.0000  44.2500 Du        
   2228 ****       192.2500  -6.0000  44.5000 Du        
   2229 ****       192.2500  -6.0000  44.7500 Du        
   2230 ****       192.2500  -6.0000  45.0000 Du        
   2231 ****       192.2500  -6.0000  46.5000 Du        
   2232 ****       192.2500  -6.0000  46.7500 Du        
   2233 ****       192.2500  -6.0000  47.0000 Du        
   2234 ****       192.2500  -6.0000  47.2500 Du        
   2235 ****       192.2500  -6.0000  47.5000 Du        
   2236 ****       192.2500  -6.0000  47.7500 Du        
   2237 ****       192.2500  -6.0000  48.0000 Du        
   2238 ****       192.2500  -5.7500  42.7500 Du        
   2239 ****       192.2500  -5.7500  43.0000 Du        
   2240 ****       192.2500  -5.7500  43.2500 Du        
   2241 ****       192.2500  -5.7500  43.5000 Du        
   2242 ****       192.2500  -5.7500  43.7500 Du        
   2243 ****       192.2500  -5.7500  44.0000 Du        
   2244 ****       192.2500  -5.7500  44.2500 Du        
   2245 ****       192.2500  -5.5000  42.7500 Du        
   2246 ****       192.2500  -5.5000  43.0000 Du        
   2247 ****       192.2500  -5.5000  43.2500 Du        
   2248 ****       192.2500  -5.5000  43.5000 Du        
   2249 ****       192.2500  -5.5000  43.7500 Du        
   2250 ****       192.2500  -5.5000  44.0000 Du        
   2251 ****       192.2500  -5.2500  43.2500 Du        
   2252 ****       192.2500  -5.2500  43.5000 Du        
   2253 ****       192.5000  -7.2500  43.0000 Du        
   2254 ****       192.5000  -7.2500  43.2500 Du        
   2255 ****       192.5000  -7.2500  43.5000 Du        
   2256 ****       192.5000  -7.2500  43.7500 Du        
   2257 ****       192.5000  -7.2500  44.0000 Du        
   2258 ****       192.5000  -7.0000  42.7500 Du        
   2259 ****       192.5000  -7.0000  43.0000 Du        
   2260 ****       192.5000  -7.0000  43.2500 Du        
   2261 ****       192.5000  -7.0000  43.5000 Du        
   2262 ****       192.5000  -7.0000  43.7500 Du        
   2263 ****       192.5000  -7.0000  44.0000 Du        
   2264 ****       192.5000  -7.0000  44.2500 Du        
   2265 ****       192.5000  -6.7500  42.7500 Du        
   2266 ****       192.5000  -6.7500  43.0000 Du        
   2267 ****       192.5000  -6.7500  43.2500 Du        
   2268 ****       192.5000  -6.7500  43.5000 Du        
   2269 ****       192.5000  -6.7500  43.7500 Du        
   2270 ****       192.5000  -6.7500  44.0000 Du        
   2271 ****       192.5000  -6.7500  44.2500 Du        
   2272 ****       192.5000  -6.5000  42.7500 Du        
   2273 ****       192.5000  -6.5000  43.0000 Du        
   2274 ****       192.5000  -6.5000  43.2500 Du        
   2275 ****       192.5000  -6.5000  43.5000 Du        
   2276 ****       192.5000  -6.5000  43.7500 Du        
   2277 ****       192.5000  -6.5000  44.0000 Du        
   2278 ****       192.5000  -6.5000  44.2500 Du        
   2279 ****       192.5000  -6.5000  44.5000 Du        
   2280 ****       192.5000  -6.5000  46.7500 Du        
   2281 ****       192.5000  -6.5000  47.0000 Du        
   2282 ****       192.5000  -6.5000  47.2500 Du        
   2283 ****       192.5000  -6.5000  47.5000 Du        
   2284 ****       192.5000  -6.5000  47.7500 Du        
   2285 ****       192.5000  -6.5000  48.0000 Du        
   2286 ****       192.5000  -6.2500  42.7500 Du        
   2287 ****       192.5000  -6.2500  43.0000 Du        
   2288 ****       192.5000  -6.2500  43.2500 Du        
   2289 ****       192.5000  -6.2500  43.5000 Du        
   2290 ****       192.5000  -6.2500  43.7500 Du        
   2291 ****       192.5000  -6.2500  44.0000 Du        
   2292 ****       192.5000  -6.2500  44.2500 Du        
   2293 ****       192.5000  -6.2500  44.5000 Du        
   2294 ****       192.5000  -6.2500  46.7500 Du        
   2295 ****       192.5000  -6.2500  47.0000 Du        
   2296 ****       192.5000  -6.2500  47.2500 Du        
   2297 ****       192.5000  -6.2500  47.5000 Du        
   2298 ****       192.5000  -6.2500  47.7500 Du        
   2299 ****       192.5000  -6.2500  48.0000 Du        
   2300 ****       192.5000  -6.0000  42.7500 Du        
   2301 ****       192.5000  -6.0000  43.0000 Du        
   2302 ****       192.5000  -6.0000  43.2500 Du        
   2303 ****       192.5000  -6.0000  43.5000 Du        
   2304 ****       192.5000  -6.0000  43.7500 Du        
   2305 ****       192.5000  -6.0000  44.0000 Du        
   2306 ****       192.5000  -6.0000  44.2500 Du        
   2307 ****       192.5000  -6.0000  47.0000 Du        
   2308 ****       192.5000  -6.0000  47.2500 Du        
   2309 ****       192.5000  -6.0000  47.5000 Du        
   2310 ****       192.5000  -6.0000  47.7500 Du        
   2311 ****       192.5000  -5.7500  42.7500 Du        
   2312 ****       192.5000  -5.7500  43.0000 Du        
   2313 ****       192.5000  -5.7500  43.2500 Du        
   2314 ****       192.5000  -5.7500  43.5000 Du        
   2315 ****       192.5000  -5.7500  43.7500 Du        
   2316 ****       192.5000  -5.7500  44.0000 Du        
   2317 ****       192.5000  -5.5000  43.0000 Du        
   2318 ****       192.5000  -5.5000  43.2500 Du        
   2319 ****       192.5000  -5.5000  43.5000 Du        
   2320 ****       192.5000  -5.5000  43.7500 Du        
   2321 ****       192.5000  -5.2500  43.2500 Du        
   2322 ****       192.7500  -7.2500  43.2500 Du        
   2323 ****       192.7500  -7.2500  43.5000 Du        
   2324 ****       192.7500  -7.0000  43.0000 Du        
   2325 ****       192.7500  -7.0000  43.2500 Du        
   2326 ****       192.7500  -7.0000  43.5000 Du        
   2327 ****       192.7500  -7.0000  43.7500 Du        
   2328 ****       192.7500  -6.7500  43.0000 Du        
   2329 ****       192.7500  -6.7500  43.2500 Du        
   2330 ****       192.7500  -6.7500  43.5000 Du        
   2331 ****       192.7500  -6.7500  43.7500 Du        
   2332 ****       192.7500  -6.5000  43.0000 Du        
   2333 ****       192.7500  -6.5000  43.2500 Du        
   2334 ****       192.7500  -6.5000  43.5000 Du        
   2335 ****       192.7500  -6.5000  43.7500 Du        
   2336 ****       192.7500  -6.5000  44.0000 Du        
   2337 ****       192.7500  -6.5000  47.5000 Du        
   2338 ****       192.7500  -6.5000  47.7500 Du        
   2339 ****       192.7500  -6.5000  48.0000 Du        
   2340 ****       192.7500  -6.2500  43.0000 Du        
   2341 ****       192.7500  -6.2500  43.2500 Du        
   2342 ****       192.7500  -6.2500  43.5000 Du        
   2343 ****       192.7500  -6.2500  43.7500 Du        
   2344 ****       192.7500  -6.2500  44.0000 Du        
   2345 ****       192.7500  -6.2500  47.5000 Du        
   2346 ****       192.7500  -6.2500  47.7500 Du        
   2347 ****       192.7500  -6.2500  48.0000 Du        
   2348 ****       192.7500  -6.0000  43.0000 Du        
   2349 ****       192.7500  -6.0000  43.2500 Du        
   2350 ****       192.7500  -6.0000  43.5000 Du        
   2351 ****       192.7500  -6.0000  43.7500 Du        
   2352 ****       192.7500  -5.7500  43.2500 Du        
   2353 ****       192.7500  -5.7500  43.5000 Du        
   2354 ****       193.0000  -6.5000  48.0000 Du        
