#       Name:                CT1002167954
#       Creating user name   hitesit
#       Creation time:       Sun Apr 16 22:58:02 2023


#       File generated by GOLD software.
#

@<TRIPOS>MOLECULE
CT1002167954|ligand_prepared|mol2|1|dock4
    29    30     1
SMALL
NO_CHARGES


@<TRIPOS>ATOM
      1 C1         191.5073  -6.2671  48.0073 C.3            1 RES1               0.0000
      2 C2         190.6058  -5.2969  48.7976 C.ar           1 RES1               0.0000
      3 C3         192.8978  -5.6391  47.9865 C.2            1 RES1               0.0000
      4 C4         191.4392  -7.6036  48.7378 C.2            1 RES1               0.0000
      5 C5         191.0500  -6.4964  46.5479 C.3            1 RES1               0.0000
      6 C6         190.7266  -5.1838  50.1794 C.ar           1 RES1               0.0000
      7 C7         189.6522  -4.5079  48.1597 C.ar           1 RES1               0.0000
      8 N8         193.8546  -6.1961  48.7827 N.am           1 RES1               0.0000
      9 O9         193.1404  -4.6461  47.3117 O.2            1 RES1               0.0000
     10 N10        192.5829  -8.0701  49.3311 N.am           1 RES1               0.0000
     11 O11        190.4013  -8.2490  48.8192 O.2            1 RES1               0.0000
     12 C12        191.8483  -7.5635  45.8157 C.3            1 RES1               0.0000
     13 C13        189.9253  -4.3114  50.8972 C.ar           1 RES1               0.0000
     14 C14        188.8518  -3.6363  48.8795 C.ar           1 RES1               0.0000
     15 C15        193.7799  -7.4123  49.4129 C.2            1 RES1               0.0000
     16 C16        188.9878  -3.5369  50.2479 C.ar           1 RES1               0.0000
     17 O17        194.7479  -7.8732  50.0110 O.2            1 RES1               0.0000
     18 H18        189.9921  -6.7867  46.5508 H              1 RES1               0.0000
     19 H19        191.1368  -5.5512  45.9980 H              1 RES1               0.0000
     20 H20        191.4571  -5.7871  50.7080 H              1 RES1               0.0000
     21 H21        189.5269  -4.5703  47.0841 H              1 RES1               0.0000
     22 H22        194.7043  -5.6587  48.9227 H              1 RES1               0.0000
     23 H23        192.5379  -8.9934  49.7505 H              1 RES1               0.0000
     24 H24        191.4868  -7.6845  44.7967 H              1 RES1               0.0000
     25 H25        192.9018  -7.2950  45.7719 H              1 RES1               0.0000
     26 H26        191.7639  -8.5232  46.3214 H              1 RES1               0.0000
     27 H27        190.0353  -4.2379  51.9742 H              1 RES1               0.0000
     28 H28        188.1148  -3.0291  48.3644 H              1 RES1               0.0000
     29 H29        188.3605  -2.8533  50.8103 H              1 RES1               0.0000
@<TRIPOS>BOND
    1    1    2 1     
    2    1    3 1     
    3    1    4 1     
    4    1    5 1     
    5    2    6 ar    
    6    2    7 ar    
    7    3    8 1     
    8    3    9 2     
    9    4   10 1     
   10    4   11 2     
   11    5   12 1     
   12    5   18 1     
   13    5   19 1     
   14    6   13 ar    
   15    6   20 1     
   16    7   14 ar    
   17    7   21 1     
   18    8   15 1     
   19    8   22 1     
   20   10   15 1     
   21   10   23 1     
   22   12   24 1     
   23   12   25 1     
   24   12   26 1     
   25   13   16 ar    
   26   13   27 1     
   27   14   16 ar    
   28   14   28 1     
   29   15   17 2     
   30   16   29 1     
@<TRIPOS>SUBSTRUCTURE
      1 RES1           1
@<TRIPOS>SET
DONOR_HYDROGENS      STATIC     ATOMS    <user>   **** ""
2 22 23
ATOM$RED        STATIC     ATOMS    COLORGROUP SYSTEM
2 22 23
@<TRIPOS>COMMENT
> <Gold.Version>
2022.3.0

> <Gold.Id.Protein>
unknown|4d1n_clean|pdb

> <Gold.Protein.RotatedTorsions>
[ 6595 6557 6558 6559 ] final   49.80 input  116.17 | X-H torsion
[ 6682 6637 6638 6639 ] final  -66.10 input  120.05 | X-H torsion
[ 8044 8009 8010 8011 ] final  -26.11 input   40.01 | X-H torsion
[ 8121 8086 8087 8088 ] final  124.91 input   93.99 | X-H torsion
[ 8182 8152 8153 8154 ] final -144.98 input   75.44 | X-H torsion
[ 8262 8220 8221 8222 ] final -124.46 input   81.29 | X-H torsion
[ 9562 9520 9519 9517 ] final  103.18 input   60.00 | X-H torsion
[ 8325 8297 8298 8299 ] final -148.07 input   91.63 | X-H torsion
[ 10204 10169 10170 10171 ] final  -27.93 input   34.07 | X-H torsion
[ 7962 7922 7923 7924 ] final  -52.78 input   79.92 | X-H torsion
[ 7893 7875 7876 7877 ] final -110.63 input   91.72 | X-H torsion
[ 7902 7880 7879 7876 ] final   63.14 input   60.02 | X-H torsion
[ 6826 6786 6787 6788 ] final  135.07 input  113.73 | X-H torsion
[ 27193 6320 6319 6318 ] final   46.19 input    0.00 | X-H torsion
[ 27196 6560 6559 6558 ] final  -70.38 input    0.00 | X-H torsion
[ 27199 7878 7877 7876 ] final   34.49 input    0.00 | X-H torsion
[ 27202 8012 8011 8010 ] final  114.75 input    0.00 | X-H torsion
[ 27205 8089 8088 8087 ] final   28.06 input   -0.00 | X-H torsion
[ 27208 8155 8154 8153 ] final -123.22 input   -0.00 | X-H torsion
[ 27214 10086 10085 10084 ] final  -82.63 input    0.00 | X-H torsion
[ 27217 10172 10171 10170 ] final -120.65 input    0.00 | X-H torsion
[ 27220 6367 6366 6365 ] final -131.39 input    0.00 | X-H torsion
[ 27222 7925 7924 7923 ] final  -32.59 input   -0.00 | X-H torsion
[ 27224 7790 7789 7788 ] final  135.85 input   -0.00 | X-H torsion

> <Gold.Protein.ActiveResidues>
 ASP403  THR404  LEU406  ILE407  TYR408  ALA410  LYS411  TRP414  TRP426  SER427 
 LYS428  LEU429  GLN430  VAL431  PHE432  ASP433  TYR453  SER462  ALA463  ILE464 

> <Gold.Protein.RotatedAtoms>
  196.7661   -3.2015   37.6572 H   0  0  0  0  0  0  0  0  0  0  0  0  # atno 6595 bound_to 6557
  197.1514   -2.5079   40.2180 H   0  0  0  0  0  0  0  0  0  0  0  0  # atno 6682 bound_to 6637
  196.5908    0.1290   42.1559 H   0  0  0  0  0  0  0  0  0  0  0  0  # atno 6826 bound_to 6786
  197.0986    0.0670   49.3836 H   0  0  0  0  0  0  0  0  0  0  0  0  # atno 7893 bound_to 7875
  197.2744   -4.0825   50.6715 H   0  0  0  0  0  0  0  0  0  0  0  0  # atno 7902 bound_to 7880
  195.1970   -2.1534   49.0523 H   0  0  0  0  0  0  0  0  0  0  0  0  # atno 7962 bound_to 7922
  192.2926   -3.2889   48.1174 H   0  0  0  0  0  0  0  0  0  0  0  0  # atno 8044 bound_to 8009
  189.4485   -2.0946   46.8296 H   0  0  0  0  0  0  0  0  0  0  0  0  # atno 8121 bound_to 8086
  189.8671   -2.3625   43.4320 H   0  0  0  0  0  0  0  0  0  0  0  0  # atno 8182 bound_to 8152
  188.2583   -2.6411   40.5036 H   0  0  0  0  0  0  0  0  0  0  0  0  # atno 8262 bound_to 8220
  188.1570   -2.4360   37.5390 H   0  0  0  0  0  0  0  0  0  0  0  0  # atno 8325 bound_to 8297
  185.6324   -5.3975   48.6336 H   0  0  0  0  0  0  0  0  0  0  0  0  # atno 9562 bound_to 9520
  187.0715    0.9096   43.2775 H   0  0  0  0  0  0  0  0  0  0  0  0  # atno 10204 bound_to 10169
  194.6811   -5.1062   36.6089 LP  0  0  0  0  0  0  0  0  0  0  0  0  # atno 27193 bound_to 6320
  196.3757   -4.7480   36.6043 LP  0  0  0  0  0  0  0  0  0  0  0  0  # atno 27194 bound_to 6320
  195.1893   -2.4871   37.4244 LP  0  0  0  0  0  0  0  0  0  0  0  0  # atno 27195 bound_to 6557
  196.3465   -0.6450   40.9528 LP  0  0  0  0  0  0  0  0  0  0  0  0  # atno 27196 bound_to 6560
  196.8779   -1.8464   42.0816 LP  0  0  0  0  0  0  0  0  0  0  0  0  # atno 27197 bound_to 6560
  198.0529   -3.3227   38.9575 LP  0  0  0  0  0  0  0  0  0  0  0  0  # atno 27198 bound_to 6637
  196.3320   -4.3921   48.1662 LP  0  0  0  0  0  0  0  0  0  0  0  0  # atno 27199 bound_to 7878
  194.6545   -3.9776   48.0466 LP  0  0  0  0  0  0  0  0  0  0  0  0  # atno 27200 bound_to 7878
  193.3405   -1.9511   48.5248 LP  0  0  0  0  0  0  0  0  0  0  0  0  # atno 27201 bound_to 8009
  191.8819   -4.0803   45.4562 LP  0  0  0  0  0  0  0  0  0  0  0  0  # atno 27202 bound_to 8012
  192.6080   -2.6807   44.7393 LP  0  0  0  0  0  0  0  0  0  0  0  0  # atno 27203 bound_to 8012
  190.8271   -1.9852   45.7577 LP  0  0  0  0  0  0  0  0  0  0  0  0  # atno 27204 bound_to 8086
  188.6382   -0.5841   44.4008 LP  0  0  0  0  0  0  0  0  0  0  0  0  # atno 27205 bound_to 8089
  188.2440   -0.8381   42.7334 LP  0  0  0  0  0  0  0  0  0  0  0  0  # atno 27206 bound_to 8089
  189.3987   -3.8607   42.6571 LP  0  0  0  0  0  0  0  0  0  0  0  0  # atno 27207 bound_to 8152
  188.7898   -4.2326   39.0246 LP  0  0  0  0  0  0  0  0  0  0  0  0  # atno 27208 bound_to 8155
  188.6878   -4.6983   40.6897 LP  0  0  0  0  0  0  0  0  0  0  0  0  # atno 27209 bound_to 8155
  188.0684   -0.9716   40.0315 LP  0  0  0  0  0  0  0  0  0  0  0  0  # atno 27210 bound_to 8220
  186.5189   -4.4129   47.6886 LP  0  0  0  0  0  0  0  0  0  0  0  0  # atno 27211 bound_to 9520
  186.0982   -5.8985   47.1569 LP  0  0  0  0  0  0  0  0  0  0  0  0  # atno 27212 bound_to 9520
  186.7991   -3.2157   36.7581 LP  0  0  0  0  0  0  0  0  0  0  0  0  # atno 27213 bound_to 8297
  188.5408   -1.1625   47.7000 LP  0  0  0  0  0  0  0  0  0  0  0  0  # atno 27214 bound_to 10086
  186.8089   -1.1708   47.6868 LP  0  0  0  0  0  0  0  0  0  0  0  0  # atno 27215 bound_to 10086
  188.4749    1.5453   44.1072 LP  0  0  0  0  0  0  0  0  0  0  0  0  # atno 27216 bound_to 10169
  188.1283    0.2579   39.9503 LP  0  0  0  0  0  0  0  0  0  0  0  0  # atno 27217 bound_to 10172
  187.2779   -0.0589   41.4256 LP  0  0  0  0  0  0  0  0  0  0  0  0  # atno 27218 bound_to 10172
  195.3838   -2.1135   50.7919 LP  0  0  0  0  0  0  0  0  0  0  0  0  # atno 27219 bound_to 7922
  198.0101   -4.1059   38.0107 LP  0  0  0  0  0  0  0  0  0  0  0  0  # atno 27220 bound_to 6367
  198.6856   -5.5456   38.6970 LP  0  0  0  0  0  0  0  0  0  0  0  0  # atno 27221 bound_to 6367
  191.5651   -1.3028   50.7921 LP  0  0  0  0  0  0  0  0  0  0  0  0  # atno 27222 bound_to 7925
  191.6586   -0.3702   49.3356 LP  0  0  0  0  0  0  0  0  0  0  0  0  # atno 27223 bound_to 7925
  196.6484   -0.2213   47.4006 LP  0  0  0  0  0  0  0  0  0  0  0  0  # atno 27224 bound_to 7790
  195.3807    0.8371   47.9228 LP  0  0  0  0  0  0  0  0  0  0  0  0  # atno 27225 bound_to 7790
  197.0823   -0.9006   50.8323 LP  0  0  0  0  0  0  0  0  0  0  0  0  # atno 27226 bound_to 7875
  198.0056   -2.7760   51.3098 LP  0  0  0  0  0  0  0  0  0  0  0  0  # atno 27227 bound_to 7880
  198.8873   -4.0846   50.8893 LP  0  0  0  0  0  0  0  0  0  0  0  0  # atno 27228 bound_to 7880

> <Gold.Score>
     Fitness  S(hb_ext) S(vdw_ext)  S(hb_int)    S(int)      intcor
     31.23       0.47      22.38       0.00      -0.02      -0.76

> <Gold.Goldscore.Fitness>
31.2327

> <Gold.Goldscore.Internal.Vdw>
-0.3472

> <Gold.Goldscore.Internal.Torsion>
-0.4268

> <Gold.Goldscore.External.Vdw>
22.3832

> <Gold.Goldscore.Internal.HBond>
0.0000

> <Gold.Goldscore.External.HBond>
0.4725

> <Gold.Goldscore.Internal.Correction>
-0.7573

> <Gold.Goldscore.Hbonds>
donor molecule, donor type, donor heavy atom, donor atom, acceptor molecule, acceptor atom, score
      P1  H  8009  8044       L1     9  0.02
      L1  H     8    22       P1  7878  0.21

> <Gold.Goldscore.Internal.Vdw.Weighted>
-0.3472

> <Gold.Goldscore.Internal.Torsion.Weighted>
-0.4268

> <Gold.Goldscore.External.Vdw.Weighted>
30.7770

> <Gold.Goldscore.Internal.HBond.Weighted>
0.0000

> <Gold.Goldscore.External.HBond.Weighted>
0.4725

> <Gold.Goldscore.Internal.Correction.Weighted>
-0.7573

> <Gold.Rescore>
     Score     S(PLP)   S(hbond)     S(cho)   S(metal)  DE(clash)   DE(tors)     intcor
     33.17     -29.00       1.68       0.00       0.00       0.00       0.43       ----

> <Gold.PLP.Fitness>
33.1749

> <Gold.PLP.PLP>
-29.0030

> <Gold.PLP.part.hbond>
-2.2359

> <Gold.PLP.part.metal>
0.0000

> <Gold.PLP.part.buried>
-5.2581

> <Gold.PLP.part.nonpolar>
-24.9695

> <Gold.PLP.part.repulsive>
2.4280

> <Gold.PLP.ligand.clash>
0.0000

> <Gold.PLP.ligand.torsion>
0.4307

> <Gold.PLP.Chemscore.Hbond>
1.6778

> <Gold.PLP.Chemscore.CHOScore>
0.0000

> <Gold.PLP.Chemscore.Metal>
0.0000

> <Gold.Chemscore.Hbonds>
donor molecule, donor type, donor heavy atom, donor atom, acceptor molecule, acceptor atom, score
      L1  H     8    22       P1  7878  0.77
      P1  H  8009  8044       L1     9  0.46

> <Gold.PLP.Chemscore.Internal.Correction>
   9.000000E+99

