#       Name:                CT1002167954
#       Creating user name   hitesit
#       Creation time:       Sun Apr 16 22:58:04 2023


#       File generated by GOLD software.
#

@<TRIPOS>MOLECULE
CT1002167954|ligand_prepared|mol2|1|dock9
    29    30     1
SMALL
NO_CHARGES


@<TRIPOS>ATOM
      1 C1         192.5685  -6.7095  46.4860 C.3            1 RES1               0.0000
      2 C2         192.4814  -6.5008  44.9603 C.ar           1 RES1               0.0000
      3 C3         192.8560  -5.3383  47.0903 C.2            1 RES1               0.0000
      4 C4         191.2329  -7.3093  46.9114 C.2            1 RES1               0.0000
      5 C5         193.6892  -7.6826  46.9205 C.3            1 RES1               0.0000
      6 C6         193.5780  -6.7649  44.1452 C.ar           1 RES1               0.0000
      7 C7         191.3126  -6.0478  44.3543 C.ar           1 RES1               0.0000
      8 N8         191.8367  -4.7087  47.7418 N.am           1 RES1               0.0000
      9 O9         193.9490  -4.8003  46.9630 O.2            1 RES1               0.0000
     10 N10        190.4231  -6.5610  47.7252 N.am           1 RES1               0.0000
     11 O11        190.8670  -8.4162  46.5357 O.2            1 RES1               0.0000
     12 C12        193.6413  -8.0542  48.3942 C.3            1 RES1               0.0000
     13 C13        193.5079  -6.5857  42.7736 C.ar           1 RES1               0.0000
     14 C14        191.2446  -5.8691  42.9824 C.ar           1 RES1               0.0000
     15 C15        190.6510  -5.2755  48.1347 C.2            1 RES1               0.0000
     16 C16        192.3412  -6.1382  42.1913 C.ar           1 RES1               0.0000
     17 O17        189.8494  -4.6487  48.8215 O.2            1 RES1               0.0000
     18 H18        193.6125  -8.5991  46.3225 H              1 RES1               0.0000
     19 H19        194.6608  -7.2214  46.7041 H              1 RES1               0.0000
     20 H20        194.5054  -7.1155  44.5858 H              1 RES1               0.0000
     21 H21        190.4378  -5.8288  44.9570 H              1 RES1               0.0000
     22 H22        191.9682  -3.7254  47.9568 H              1 RES1               0.0000
     23 H23        189.5718  -7.0034  48.0565 H              1 RES1               0.0000
     24 H24        194.4489  -8.7384  48.6459 H              1 RES1               0.0000
     25 H25        193.7402  -7.1687  49.0187 H              1 RES1               0.0000
     26 H26        192.6982  -8.5382  48.6394 H              1 RES1               0.0000
     27 H27        194.3741  -6.7976  42.1555 H              1 RES1               0.0000
     28 H28        190.3245  -5.5161  42.5285 H              1 RES1               0.0000
     29 H29        192.2863  -5.9982  41.1168 H              1 RES1               0.0000
@<TRIPOS>BOND
    1    1    2 1     
    2    1    3 1     
    3    1    4 1     
    4    1    5 1     
    5    2    6 ar    
    6    2    7 ar    
    7    3    8 1     
    8    3    9 2     
    9    4   10 1     
   10    4   11 2     
   11    5   12 1     
   12    5   18 1     
   13    5   19 1     
   14    6   13 ar    
   15    6   20 1     
   16    7   14 ar    
   17    7   21 1     
   18    8   15 1     
   19    8   22 1     
   20   10   15 1     
   21   10   23 1     
   22   12   24 1     
   23   12   25 1     
   24   12   26 1     
   25   13   16 ar    
   26   13   27 1     
   27   14   16 ar    
   28   14   28 1     
   29   15   17 2     
   30   16   29 1     
@<TRIPOS>SUBSTRUCTURE
      1 RES1           1
@<TRIPOS>SET
DONOR_HYDROGENS      STATIC     ATOMS    <user>   **** ""
2 22 23
ATOM$RED        STATIC     ATOMS    COLORGROUP SYSTEM
2 22 23
@<TRIPOS>COMMENT
> <Gold.Version>
2022.3.0

> <Gold.Id.Protein>
unknown|4d1n_clean|pdb

> <Gold.Protein.RotatedTorsions>
[ 6595 6557 6558 6559 ] final -100.07 input  116.17 | X-H torsion
[ 6682 6637 6638 6639 ] final   -8.06 input  120.05 | X-H torsion
[ 8044 8009 8010 8011 ] final  179.89 input   40.01 | X-H torsion
[ 8121 8086 8087 8088 ] final  -87.06 input   93.99 | X-H torsion
[ 8182 8152 8153 8154 ] final  -53.26 input   75.44 | X-H torsion
[ 8262 8220 8221 8222 ] final  -44.33 input   81.29 | X-H torsion
[ 9562 9520 9519 9517 ] final  170.02 input   60.00 | X-H torsion
[ 8325 8297 8298 8299 ] final  -75.81 input   91.63 | X-H torsion
[ 10204 10169 10170 10171 ] final -177.87 input   34.07 | X-H torsion
[ 7962 7922 7923 7924 ] final   53.91 input   79.92 | X-H torsion
[ 7893 7875 7876 7877 ] final  -42.34 input   91.72 | X-H torsion
[ 7902 7880 7879 7876 ] final   94.25 input   60.02 | X-H torsion
[ 6826 6786 6787 6788 ] final  103.91 input  113.73 | X-H torsion
[ 27193 6320 6319 6318 ] final  122.10 input    0.00 | X-H torsion
[ 27196 6560 6559 6558 ] final   83.49 input    0.00 | X-H torsion
[ 27199 7878 7877 7876 ] final  -41.53 input    0.00 | X-H torsion
[ 27202 8012 8011 8010 ] final  143.46 input    0.00 | X-H torsion
[ 27205 8089 8088 8087 ] final   14.65 input   -0.00 | X-H torsion
[ 27208 8155 8154 8153 ] final   79.29 input   -0.00 | X-H torsion
[ 27214 10086 10085 10084 ] final   76.37 input    0.00 | X-H torsion
[ 27217 10172 10171 10170 ] final -138.03 input    0.00 | X-H torsion
[ 27220 6367 6366 6365 ] final  -66.77 input    0.00 | X-H torsion
[ 27222 7925 7924 7923 ] final -145.78 input   -0.00 | X-H torsion
[ 27224 7790 7789 7788 ] final  141.45 input   -0.00 | X-H torsion

> <Gold.Protein.ActiveResidues>
 ASP403  THR404  LEU406  ILE407  TYR408  ALA410  LYS411  TRP414  TRP426  SER427 
 LYS428  LEU429  GLN430  VAL431  PHE432  ASP433  TYR453  SER462  ALA463  ILE464 

> <Gold.Protein.RotatedAtoms>
  195.4544   -2.1254   37.4974 H   0  0  0  0  0  0  0  0  0  0  0  0  # atno 6595 bound_to 6557
  197.3596   -2.0710   39.5024 H   0  0  0  0  0  0  0  0  0  0  0  0  # atno 6682 bound_to 6637
  197.0400    0.2184   42.0363 H   0  0  0  0  0  0  0  0  0  0  0  0  # atno 6826 bound_to 6786
  196.2826   -0.2233   49.8419 H   0  0  0  0  0  0  0  0  0  0  0  0  # atno 7893 bound_to 7875
  197.6478   -4.4078   50.5876 H   0  0  0  0  0  0  0  0  0  0  0  0  # atno 7902 bound_to 7880
  194.9518   -1.3597   50.2112 H   0  0  0  0  0  0  0  0  0  0  0  0  # atno 7962 bound_to 7922
  193.0566   -1.9002   48.7926 H   0  0  0  0  0  0  0  0  0  0  0  0  # atno 8044 bound_to 8009
  190.9089   -2.3961   45.9975 H   0  0  0  0  0  0  0  0  0  0  0  0  # atno 8121 bound_to 8086
  188.7694   -2.8928   43.0499 H   0  0  0  0  0  0  0  0  0  0  0  0  # atno 8182 bound_to 8152
  188.8178   -2.0346   39.7277 H   0  0  0  0  0  0  0  0  0  0  0  0  # atno 8262 bound_to 8220
  187.2589   -1.9757   37.2566 H   0  0  0  0  0  0  0  0  0  0  0  0  # atno 8325 bound_to 8297
  185.6829   -6.0828   47.8645 H   0  0  0  0  0  0  0  0  0  0  0  0  # atno 9562 bound_to 9520
  188.1480    1.8282   44.2487 H   0  0  0  0  0  0  0  0  0  0  0  0  # atno 10204 bound_to 10169
  195.4408   -5.5236   37.2283 LP  0  0  0  0  0  0  0  0  0  0  0  0  # atno 27193 bound_to 6320
  195.6161   -4.3306   35.9849 LP  0  0  0  0  0  0  0  0  0  0  0  0  # atno 27194 bound_to 6320
  196.4741   -3.5411   37.5809 LP  0  0  0  0  0  0  0  0  0  0  0  0  # atno 27195 bound_to 6557
  196.4910   -1.9045   42.0661 LP  0  0  0  0  0  0  0  0  0  0  0  0  # atno 27196 bound_to 6560
  196.7333   -0.5869   40.9683 LP  0  0  0  0  0  0  0  0  0  0  0  0  # atno 27197 bound_to 6560
  197.8518   -3.7448   39.6488 LP  0  0  0  0  0  0  0  0  0  0  0  0  # atno 27198 bound_to 6637
  195.8608   -3.7627   47.4456 LP  0  0  0  0  0  0  0  0  0  0  0  0  # atno 27199 bound_to 7878
  195.1257   -4.6071   48.7672 LP  0  0  0  0  0  0  0  0  0  0  0  0  # atno 27200 bound_to 7878
  192.5943   -3.3074   47.8654 LP  0  0  0  0  0  0  0  0  0  0  0  0  # atno 27201 bound_to 8009
  191.6394   -3.9995   45.1112 LP  0  0  0  0  0  0  0  0  0  0  0  0  # atno 27202 bound_to 8012
  192.8505   -2.7615   45.0843 LP  0  0  0  0  0  0  0  0  0  0  0  0  # atno 27203 bound_to 8012
  189.4106   -1.6928   46.5648 LP  0  0  0  0  0  0  0  0  0  0  0  0  # atno 27204 bound_to 8086
  188.4548   -0.6636   44.4317 LP  0  0  0  0  0  0  0  0  0  0  0  0  # atno 27205 bound_to 8089
  188.4274   -0.7586   42.7025 LP  0  0  0  0  0  0  0  0  0  0  0  0  # atno 27206 bound_to 8089
  190.4596   -3.3481   43.0265 LP  0  0  0  0  0  0  0  0  0  0  0  0  # atno 27207 bound_to 8152
  188.3607   -4.6732   40.6081 LP  0  0  0  0  0  0  0  0  0  0  0  0  # atno 27208 bound_to 8155
  189.1169   -4.2577   39.1062 LP  0  0  0  0  0  0  0  0  0  0  0  0  # atno 27209 bound_to 8155
  187.5179   -1.5682   40.7948 LP  0  0  0  0  0  0  0  0  0  0  0  0  # atno 27210 bound_to 8220
  186.0060   -4.6477   48.5606 LP  0  0  0  0  0  0  0  0  0  0  0  0  # atno 27211 bound_to 9520
  186.5602   -4.9734   47.0595 LP  0  0  0  0  0  0  0  0  0  0  0  0  # atno 27212 bound_to 9520
  187.6693   -3.6617   37.0317 LP  0  0  0  0  0  0  0  0  0  0  0  0  # atno 27213 bound_to 8297
  186.8642   -1.2063   47.9955 LP  0  0  0  0  0  0  0  0  0  0  0  0  # atno 27214 bound_to 10086
  188.4855   -1.1270   47.3913 LP  0  0  0  0  0  0  0  0  0  0  0  0  # atno 27215 bound_to 10086
  187.4316    0.6551   43.1659 LP  0  0  0  0  0  0  0  0  0  0  0  0  # atno 27216 bound_to 10169
  187.8851    0.2474   39.8543 LP  0  0  0  0  0  0  0  0  0  0  0  0  # atno 27217 bound_to 10172
  187.5211   -0.0485   41.5216 LP  0  0  0  0  0  0  0  0  0  0  0  0  # atno 27218 bound_to 10172
  195.6215   -2.8827   49.6686 LP  0  0  0  0  0  0  0  0  0  0  0  0  # atno 27219 bound_to 7922
  197.4826   -4.7907   38.3425 LP  0  0  0  0  0  0  0  0  0  0  0  0  # atno 27220 bound_to 6367
  199.2131   -4.8608   38.3652 LP  0  0  0  0  0  0  0  0  0  0  0  0  # atno 27221 bound_to 6367
  190.9608   -0.9948   49.5152 LP  0  0  0  0  0  0  0  0  0  0  0  0  # atno 27222 bound_to 7925
  192.2629   -0.6783   50.6125 LP  0  0  0  0  0  0  0  0  0  0  0  0  # atno 27223 bound_to 7925
  196.5971   -0.2857   47.4202 LP  0  0  0  0  0  0  0  0  0  0  0  0  # atno 27224 bound_to 7790
  195.4320    0.9015   47.9033 LP  0  0  0  0  0  0  0  0  0  0  0  0  # atno 27225 bound_to 7790
  197.8949   -0.6115   50.3759 LP  0  0  0  0  0  0  0  0  0  0  0  0  # atno 27226 bound_to 7875
  197.5298   -2.9020   51.1941 LP  0  0  0  0  0  0  0  0  0  0  0  0  # atno 27227 bound_to 7880
  198.9873   -3.6311   51.0894 LP  0  0  0  0  0  0  0  0  0  0  0  0  # atno 27228 bound_to 7880

> <Gold.Score>
     Fitness  S(hb_ext) S(vdw_ext)  S(hb_int)    S(int)      intcor
     31.94       5.93      19.39       0.00      -0.66      -0.76

> <Gold.Goldscore.Fitness>
31.9361

> <Gold.Goldscore.Internal.Vdw>
-0.9257

> <Gold.Goldscore.Internal.Torsion>
-0.4872

> <Gold.Goldscore.External.Vdw>
19.3930

> <Gold.Goldscore.Internal.HBond>
0.0000

> <Gold.Goldscore.External.HBond>
5.9263

> <Gold.Goldscore.Internal.Correction>
-0.7573

> <Gold.Goldscore.Hbonds>
donor molecule, donor type, donor heavy atom, donor atom, acceptor molecule, acceptor atom, score
      L1  H     8    22       P1  8009  0.99

> <Gold.Goldscore.Internal.Vdw.Weighted>
-0.9257

> <Gold.Goldscore.Internal.Torsion.Weighted>
-0.4872

> <Gold.Goldscore.External.Vdw.Weighted>
26.6654

> <Gold.Goldscore.Internal.HBond.Weighted>
0.0000

> <Gold.Goldscore.External.HBond.Weighted>
5.9263

> <Gold.Goldscore.Internal.Correction.Weighted>
-0.7573

> <Gold.Rescore>
     Score     S(PLP)   S(hbond)     S(cho)   S(metal)  DE(clash)   DE(tors)     intcor
     28.94     -25.20       1.26       0.00       0.00       0.00       0.02       ----

> <Gold.PLP.Fitness>
28.9449

> <Gold.PLP.PLP>
-25.1979

> <Gold.PLP.part.hbond>
-3.6821

> <Gold.PLP.part.metal>
0.0000

> <Gold.PLP.part.buried>
-2.1730

> <Gold.PLP.part.nonpolar>
-20.5278

> <Gold.PLP.part.repulsive>
0.5053

> <Gold.PLP.ligand.clash>
0.0000

> <Gold.PLP.ligand.torsion>
0.0204

> <Gold.PLP.Chemscore.Hbond>
1.2626

> <Gold.PLP.Chemscore.CHOScore>
0.0000

> <Gold.PLP.Chemscore.Metal>
0.0000

> <Gold.Chemscore.Hbonds>
donor molecule, donor type, donor heavy atom, donor atom, acceptor molecule, acceptor atom, score
      L1  H     8    22       P1  8009  0.83

> <Gold.PLP.Chemscore.Internal.Correction>
   9.000000E+99

