#       Name:                CT1002167954
#       Creating user name   hitesit
#       Creation time:       Sun Apr 16 22:58:05 2023


#       File generated by GOLD software.
#

@<TRIPOS>MOLECULE
CT1002167954|ligand_prepared|mol2|1|dock10
    29    30     1
SMALL
NO_CHARGES


@<TRIPOS>ATOM
      1 C1         190.1439  -5.9459  48.5851 C.3            1 RES1               0.0000
      2 C2         189.4592  -4.9014  49.4902 C.ar           1 RES1               0.0000
      3 C3         191.2631  -6.5656  49.4168 C.2            1 RES1               0.0000
      4 C4         189.0562  -6.9316  48.1728 C.2            1 RES1               0.0000
      5 C5         190.7607  -5.3493  47.2985 C.3            1 RES1               0.0000
      6 C6         188.7729  -5.2966  50.6345 C.ar           1 RES1               0.0000
      7 C7         189.5075  -3.5414  49.1958 C.ar           1 RES1               0.0000
      8 N8         191.0758  -7.8334  49.8832 N.am           1 RES1               0.0000
      9 O9         192.2775  -5.9370  49.6924 O.2            1 RES1               0.0000
     10 N10        189.1577  -8.2233  48.6189 N.am           1 RES1               0.0000
     11 O11        188.1035  -6.5974  47.4794 O.2            1 RES1               0.0000
     12 C12        191.3756  -6.3886  46.3744 C.3            1 RES1               0.0000
     13 C13        188.1595  -4.3657  51.4564 C.ar           1 RES1               0.0000
     14 C14        188.8932  -2.6122  50.0190 C.ar           1 RES1               0.0000
     15 C15        190.1018  -8.7114  49.4807 C.2            1 RES1               0.0000
     16 C16        188.2196  -3.0230  51.1495 C.ar           1 RES1               0.0000
     17 O17        190.0954  -9.8724  49.8796 O.2            1 RES1               0.0000
     18 H18        189.9796  -4.8078  46.7508 H              1 RES1               0.0000
     19 H19        191.5353  -4.6257  47.5810 H              1 RES1               0.0000
     20 H20        188.7128  -6.3491  50.8908 H              1 RES1               0.0000
     21 H21        190.0309  -3.1953  48.3110 H              1 RES1               0.0000
     22 H22        191.7195  -8.1587  50.5975 H              1 RES1               0.0000
     23 H23        188.4654  -8.8820  48.2767 H              1 RES1               0.0000
     24 H24        191.7937  -5.9170  45.4876 H              1 RES1               0.0000
     25 H25        192.1737  -6.9293  46.8789 H              1 RES1               0.0000
     26 H26        190.6272  -7.1104  46.0536 H              1 RES1               0.0000
     27 H27        187.6294  -4.6943  52.3442 H              1 RES1               0.0000
     28 H28        188.9425  -1.5565  49.7732 H              1 RES1               0.0000
     29 H29        187.7393  -2.2940  51.7937 H              1 RES1               0.0000
@<TRIPOS>BOND
    1    1    2 1     
    2    1    3 1     
    3    1    4 1     
    4    1    5 1     
    5    2    6 ar    
    6    2    7 ar    
    7    3    8 1     
    8    3    9 2     
    9    4   10 1     
   10    4   11 2     
   11    5   12 1     
   12    5   18 1     
   13    5   19 1     
   14    6   13 ar    
   15    6   20 1     
   16    7   14 ar    
   17    7   21 1     
   18    8   15 1     
   19    8   22 1     
   20   10   15 1     
   21   10   23 1     
   22   12   24 1     
   23   12   25 1     
   24   12   26 1     
   25   13   16 ar    
   26   13   27 1     
   27   14   16 ar    
   28   14   28 1     
   29   15   17 2     
   30   16   29 1     
@<TRIPOS>SUBSTRUCTURE
      1 RES1           1
@<TRIPOS>SET
DONOR_HYDROGENS      STATIC     ATOMS    <user>   **** ""
2 22 23
ATOM$RED        STATIC     ATOMS    COLORGROUP SYSTEM
2 22 23
@<TRIPOS>COMMENT
> <Gold.Version>
2022.3.0

> <Gold.Id.Protein>
unknown|4d1n_clean|pdb

> <Gold.Protein.RotatedTorsions>
[ 6595 6557 6558 6559 ] final -155.85 input  116.17 | X-H torsion
[ 6682 6637 6638 6639 ] final  106.80 input  120.05 | X-H torsion
[ 8044 8009 8010 8011 ] final   66.94 input   40.01 | X-H torsion
[ 8121 8086 8087 8088 ] final    4.89 input   93.99 | X-H torsion
[ 8182 8152 8153 8154 ] final   52.55 input   75.44 | X-H torsion
[ 8262 8220 8221 8222 ] final   21.58 input   81.29 | X-H torsion
[ 9562 9520 9519 9517 ] final  -67.02 input   60.00 | X-H torsion
[ 8325 8297 8298 8299 ] final  -55.56 input   91.63 | X-H torsion
[ 10204 10169 10170 10171 ] final -174.97 input   34.07 | X-H torsion
[ 7962 7922 7923 7924 ] final   67.55 input   79.92 | X-H torsion
[ 7893 7875 7876 7877 ] final  132.68 input   91.72 | X-H torsion
[ 7902 7880 7879 7876 ] final  -44.05 input   60.02 | X-H torsion
[ 6826 6786 6787 6788 ] final -158.77 input  113.73 | X-H torsion
[ 27193 6320 6319 6318 ] final  119.50 input    0.00 | X-H torsion
[ 27196 6560 6559 6558 ] final   -8.78 input    0.00 | X-H torsion
[ 27199 7878 7877 7876 ] final  -48.38 input    0.00 | X-H torsion
[ 27202 8012 8011 8010 ] final  -47.02 input    0.00 | X-H torsion
[ 27205 8089 8088 8087 ] final  128.71 input   -0.00 | X-H torsion
[ 27208 8155 8154 8153 ] final  -89.18 input   -0.00 | X-H torsion
[ 27214 10086 10085 10084 ] final -123.31 input    0.00 | X-H torsion
[ 27217 10172 10171 10170 ] final -165.52 input    0.00 | X-H torsion
[ 27220 6367 6366 6365 ] final   84.83 input    0.00 | X-H torsion
[ 27222 7925 7924 7923 ] final    9.02 input   -0.00 | X-H torsion
[ 27224 7790 7789 7788 ] final   55.37 input   -0.00 | X-H torsion

> <Gold.Protein.ActiveResidues>
 ASP403  THR404  LEU406  ILE407  TYR408  ALA410  LYS411  TRP414  TRP426  SER427 
 LYS428  LEU429  GLN430  VAL431  PHE432  ASP433  TYR453  SER462  ALA463  ILE464 

> <Gold.Protein.RotatedAtoms>
  195.1011   -2.8629   37.3848 H   0  0  0  0  0  0  0  0  0  0  0  0  # atno 6595 bound_to 6557
  198.0828   -3.2348   38.8900 H   0  0  0  0  0  0  0  0  0  0  0  0  # atno 6682 bound_to 6637
  195.8656    0.7174   42.3872 H   0  0  0  0  0  0  0  0  0  0  0  0  # atno 6826 bound_to 6786
  197.8668   -0.6291   50.4483 H   0  0  0  0  0  0  0  0  0  0  0  0  # atno 7893 bound_to 7875
  197.8015   -2.8027   51.2690 H   0  0  0  0  0  0  0  0  0  0  0  0  # atno 7902 bound_to 7880
  195.0061   -1.4325   50.4017 H   0  0  0  0  0  0  0  0  0  0  0  0  # atno 7962 bound_to 7922
  193.3952   -2.8024   47.6772 H   0  0  0  0  0  0  0  0  0  0  0  0  # atno 8044 bound_to 8009
  190.2069   -1.3701   45.7040 H   0  0  0  0  0  0  0  0  0  0  0  0  # atno 8121 bound_to 8086
  189.6609   -3.9159   42.6322 H   0  0  0  0  0  0  0  0  0  0  0  0  # atno 8182 bound_to 8152
  188.4474   -1.1522   39.7423 H   0  0  0  0  0  0  0  0  0  0  0  0  # atno 8262 bound_to 8220
  186.9993   -2.0770   37.1153 H   0  0  0  0  0  0  0  0  0  0  0  0  # atno 8325 bound_to 8297
  186.5644   -4.9324   47.0858 H   0  0  0  0  0  0  0  0  0  0  0  0  # atno 9562 bound_to 9520
  188.1071    1.8458   44.2548 H   0  0  0  0  0  0  0  0  0  0  0  0  # atno 10204 bound_to 10169
  195.4022   -5.5245   37.2207 LP  0  0  0  0  0  0  0  0  0  0  0  0  # atno 27193 bound_to 6320
  195.6547   -4.3296   35.9925 LP  0  0  0  0  0  0  0  0  0  0  0  0  # atno 27194 bound_to 6320
  196.8202   -2.8187   37.6912 LP  0  0  0  0  0  0  0  0  0  0  0  0  # atno 27195 bound_to 6557
  195.7673   -1.1988   41.3329 LP  0  0  0  0  0  0  0  0  0  0  0  0  # atno 27196 bound_to 6560
  197.4571   -1.2926   41.7014 LP  0  0  0  0  0  0  0  0  0  0  0  0  # atno 27197 bound_to 6560
  197.1531   -2.6205   40.2404 LP  0  0  0  0  0  0  0  0  0  0  0  0  # atno 27198 bound_to 6637
  195.7659   -3.7277   47.4233 LP  0  0  0  0  0  0  0  0  0  0  0  0  # atno 27199 bound_to 7878
  195.2206   -4.6421   48.7895 LP  0  0  0  0  0  0  0  0  0  0  0  0  # atno 27200 bound_to 7878
  192.2637   -2.4262   48.9547 LP  0  0  0  0  0  0  0  0  0  0  0  0  # atno 27201 bound_to 8009
  192.7767   -2.7124   44.9533 LP  0  0  0  0  0  0  0  0  0  0  0  0  # atno 27202 bound_to 8012
  191.7131   -4.0486   45.2423 LP  0  0  0  0  0  0  0  0  0  0  0  0  # atno 27203 bound_to 8012
  190.0915   -2.6879   46.8494 LP  0  0  0  0  0  0  0  0  0  0  0  0  # atno 27204 bound_to 8086
  189.1589   -0.4122   43.1857 LP  0  0  0  0  0  0  0  0  0  0  0  0  # atno 27205 bound_to 8089
  187.7233   -1.0100   43.9485 LP  0  0  0  0  0  0  0  0  0  0  0  0  # atno 27206 bound_to 8089
  189.5979   -2.3592   43.4302 LP  0  0  0  0  0  0  0  0  0  0  0  0  # atno 27207 bound_to 8152
  189.2650   -4.2832   39.1939 LP  0  0  0  0  0  0  0  0  0  0  0  0  # atno 27208 bound_to 8155
  188.2126   -4.6477   40.5204 LP  0  0  0  0  0  0  0  0  0  0  0  0  # atno 27209 bound_to 8155
  187.8823   -2.4363   40.7805 LP  0  0  0  0  0  0  0  0  0  0  0  0  # atno 27210 bound_to 8220
  185.6985   -6.0979   47.8207 LP  0  0  0  0  0  0  0  0  0  0  0  0  # atno 27211 bound_to 9520
  185.9799   -4.6819   48.5838 LP  0  0  0  0  0  0  0  0  0  0  0  0  # atno 27212 bound_to 9520
  187.9208   -3.5635   37.1685 LP  0  0  0  0  0  0  0  0  0  0  0  0  # atno 27213 bound_to 8297
  188.3355   -1.0984   47.1376 LP  0  0  0  0  0  0  0  0  0  0  0  0  # atno 27214 bound_to 10086
  187.0142   -1.2349   48.2491 LP  0  0  0  0  0  0  0  0  0  0  0  0  # atno 27215 bound_to 10086
  187.4713    0.6380   43.1599 LP  0  0  0  0  0  0  0  0  0  0  0  0  # atno 27216 bound_to 10169
  187.4759    0.2042   39.8588 LP  0  0  0  0  0  0  0  0  0  0  0  0  # atno 27217 bound_to 10172
  187.9303   -0.0052   41.5170 LP  0  0  0  0  0  0  0  0  0  0  0  0  # atno 27218 bound_to 10172
  195.5689   -2.8122   49.4840 LP  0  0  0  0  0  0  0  0  0  0  0  0  # atno 27219 bound_to 7922
  199.0915   -5.2277   38.5419 LP  0  0  0  0  0  0  0  0  0  0  0  0  # atno 27220 bound_to 6367
  197.6042   -4.4238   38.1657 LP  0  0  0  0  0  0  0  0  0  0  0  0  # atno 27221 bound_to 6367
  192.0605   -0.9382   50.7976 LP  0  0  0  0  0  0  0  0  0  0  0  0  # atno 27222 bound_to 7925
  191.1632   -0.7348   49.3301 LP  0  0  0  0  0  0  0  0  0  0  0  0  # atno 27223 bound_to 7925
  196.6076    0.8963   47.4336 LP  0  0  0  0  0  0  0  0  0  0  0  0  # atno 27224 bound_to 7790
  195.4215   -0.2805   47.8899 LP  0  0  0  0  0  0  0  0  0  0  0  0  # atno 27225 bound_to 7790
  196.3175   -0.2074   49.7721 LP  0  0  0  0  0  0  0  0  0  0  0  0  # atno 27226 bound_to 7875
  198.9609   -3.9059   50.9728 LP  0  0  0  0  0  0  0  0  0  0  0  0  # atno 27227 bound_to 7880
  197.4015   -4.2429   50.6249 LP  0  0  0  0  0  0  0  0  0  0  0  0  # atno 27228 bound_to 7880

> <Gold.Score>
     Fitness  S(hb_ext) S(vdw_ext)  S(hb_int)    S(int)      intcor
     28.03       0.06      20.35       0.00      -0.02      -0.76

> <Gold.Goldscore.Fitness>
28.0299

> <Gold.Goldscore.Internal.Vdw>
-0.3935

> <Gold.Goldscore.Internal.Torsion>
-0.3792

> <Gold.Goldscore.External.Vdw>
20.3516

> <Gold.Goldscore.Internal.HBond>
0.0000

> <Gold.Goldscore.External.HBond>
0.0618

> <Gold.Goldscore.Internal.Correction>
-0.7573

> <Gold.Goldscore.Hbonds>
donor molecule, donor type, donor heavy atom, donor atom, acceptor molecule, acceptor atom, score
      P1  H  8093  8128       L1    11  0.03

> <Gold.Goldscore.Internal.Vdw.Weighted>
-0.3935

> <Gold.Goldscore.Internal.Torsion.Weighted>
-0.3792

> <Gold.Goldscore.External.Vdw.Weighted>
27.9834

> <Gold.Goldscore.Internal.HBond.Weighted>
0.0000

> <Gold.Goldscore.External.HBond.Weighted>
0.0618

> <Gold.Goldscore.Internal.Correction.Weighted>
-0.7573

> <Gold.Rescore>
     Score     S(PLP)   S(hbond)     S(cho)   S(metal)  DE(clash)   DE(tors)     intcor
     34.22     -32.25       0.77       0.00       0.00       0.00       0.17       ----

> <Gold.PLP.Fitness>
34.2159

> <Gold.PLP.PLP>
-32.2472

> <Gold.PLP.part.hbond>
-1.6074

> <Gold.PLP.part.metal>
0.0000

> <Gold.PLP.part.buried>
-4.1619

> <Gold.PLP.part.nonpolar>
-26.5965

> <Gold.PLP.part.repulsive>
0.0717

> <Gold.PLP.ligand.clash>
0.0000

> <Gold.PLP.ligand.torsion>
0.1676

> <Gold.PLP.Chemscore.Hbond>
0.7680

> <Gold.PLP.Chemscore.CHOScore>
0.0000

> <Gold.PLP.Chemscore.Metal>
0.0000

> <Gold.Chemscore.Hbonds>
donor molecule, donor type, donor heavy atom, donor atom, acceptor molecule, acceptor atom, score
      P1  H  8093  8128       L1    11  0.66
      P1  H  9520  9562       L1    11  0.06

> <Gold.PLP.Chemscore.Internal.Correction>
   9.000000E+99

