#       Name:                CT1002167954
#       Creating user name   hitesit
#       Creation time:       Sun Apr 16 22:58:03 2023


#       File generated by GOLD software.
#

@<TRIPOS>MOLECULE
CT1002167954|ligand_prepared|mol2|1|dock7
    29    30     1
SMALL
NO_CHARGES


@<TRIPOS>ATOM
      1 C1         191.9400  -7.4228  44.8684 C.3            1 RES1               0.0000
      2 C2         191.8759  -6.7350  46.2474 C.ar           1 RES1               0.0000
      3 C3         190.5080  -7.4640  44.3432 C.2            1 RES1               0.0000
      4 C4         192.8905  -6.5868  44.0186 C.2            1 RES1               0.0000
      5 C5         192.4876  -8.8683  44.9160 C.3            1 RES1               0.0000
      6 C6         192.7994  -7.0497  47.2398 C.ar           1 RES1               0.0000
      7 C7         190.9024  -5.7837  46.5406 C.ar           1 RES1               0.0000
      8 N8         190.1788  -6.6036  43.3377 N.am           1 RES1               0.0000
      9 O9         189.6699  -8.2124  44.8308 O.2            1 RES1               0.0000
     10 N10        192.3728  -5.9318  42.9319 N.am           1 RES1               0.0000
     11 O11        194.0799  -6.4760  44.2897 O.2            1 RES1               0.0000
     12 C12        192.2841  -9.6438  43.6240 C.3            1 RES1               0.0000
     13 C13        192.7534  -6.4335  48.4794 C.ar           1 RES1               0.0000
     14 C14        190.8580  -5.1689  47.7809 C.ar           1 RES1               0.0000
     15 C15        191.0542  -5.8776  42.5707 C.2            1 RES1               0.0000
     16 C16        191.7830  -5.4925  48.7506 C.ar           1 RES1               0.0000
     17 O17        190.6582  -5.2222  41.6111 O.2            1 RES1               0.0000
     18 H18        193.5606  -8.8322  45.1410 H              1 RES1               0.0000
     19 H19        191.9917  -9.4070  45.7329 H              1 RES1               0.0000
     20 H20        193.5688  -7.7895  47.0455 H              1 RES1               0.0000
     21 H21        190.1638  -5.5142  45.7934 H              1 RES1               0.0000
     22 H22        189.1902  -6.4893  43.1375 H              1 RES1               0.0000
     23 H23        193.0315  -5.4392  42.3371 H              1 RES1               0.0000
     24 H24        192.6861 -10.6511  43.7114 H              1 RES1               0.0000
     25 H25        191.2259  -9.7210  43.3829 H              1 RES1               0.0000
     26 H26        192.7856  -9.1496  42.7945 H              1 RES1               0.0000
     27 H27        193.4828  -6.6927  49.2396 H              1 RES1               0.0000
     28 H28        190.0922  -4.4293  47.9903 H              1 RES1               0.0000
     29 H29        191.7474  -5.0096  49.7216 H              1 RES1               0.0000
@<TRIPOS>BOND
    1    1    2 1     
    2    1    3 1     
    3    1    4 1     
    4    1    5 1     
    5    2    6 ar    
    6    2    7 ar    
    7    3    8 1     
    8    3    9 2     
    9    4   10 1     
   10    4   11 2     
   11    5   12 1     
   12    5   18 1     
   13    5   19 1     
   14    6   13 ar    
   15    6   20 1     
   16    7   14 ar    
   17    7   21 1     
   18    8   15 1     
   19    8   22 1     
   20   10   15 1     
   21   10   23 1     
   22   12   24 1     
   23   12   25 1     
   24   12   26 1     
   25   13   16 ar    
   26   13   27 1     
   27   14   16 ar    
   28   14   28 1     
   29   15   17 2     
   30   16   29 1     
@<TRIPOS>SUBSTRUCTURE
      1 RES1           1
@<TRIPOS>SET
DONOR_HYDROGENS      STATIC     ATOMS    <user>   **** ""
2 22 23
ATOM$RED        STATIC     ATOMS    COLORGROUP SYSTEM
2 22 23
@<TRIPOS>COMMENT
> <Gold.Version>
2022.3.0

> <Gold.Id.Protein>
unknown|4d1n_clean|pdb

> <Gold.Protein.RotatedTorsions>
[ 6595 6557 6558 6559 ] final -137.09 input  116.17 | X-H torsion
[ 6682 6637 6638 6639 ] final   37.22 input  120.05 | X-H torsion
[ 8044 8009 8010 8011 ] final  -83.87 input   40.01 | X-H torsion
[ 8121 8086 8087 8088 ] final -119.04 input   93.99 | X-H torsion
[ 8182 8152 8153 8154 ] final -144.94 input   75.44 | X-H torsion
[ 8262 8220 8221 8222 ] final  -45.70 input   81.29 | X-H torsion
[ 9562 9520 9519 9517 ] final  120.29 input   60.00 | X-H torsion
[ 8325 8297 8298 8299 ] final   60.72 input   91.63 | X-H torsion
[ 10204 10169 10170 10171 ] final  157.10 input   34.07 | X-H torsion
[ 7962 7922 7923 7924 ] final   29.76 input   79.92 | X-H torsion
[ 7893 7875 7876 7877 ] final  122.20 input   91.72 | X-H torsion
[ 7902 7880 7879 7876 ] final -107.00 input   60.02 | X-H torsion
[ 6826 6786 6787 6788 ] final  106.94 input  113.73 | X-H torsion
[ 27193 6320 6319 6318 ] final   12.70 input    0.00 | X-H torsion
[ 27196 6560 6559 6558 ] final   48.55 input    0.00 | X-H torsion
[ 27199 7878 7877 7876 ] final   14.78 input    0.00 | X-H torsion
[ 27202 8012 8011 8010 ] final  -41.71 input    0.00 | X-H torsion
[ 27205 8089 8088 8087 ] final   97.83 input   -0.00 | X-H torsion
[ 27208 8155 8154 8153 ] final -123.33 input   -0.00 | X-H torsion
[ 27214 10086 10085 10084 ] final -157.37 input    0.00 | X-H torsion
[ 27217 10172 10171 10170 ] final  -40.24 input    0.00 | X-H torsion
[ 27220 6367 6366 6365 ] final -152.43 input    0.00 | X-H torsion
[ 27222 7925 7924 7923 ] final -154.41 input   -0.00 | X-H torsion
[ 27224 7790 7789 7788 ] final -175.13 input   -0.00 | X-H torsion

> <Gold.Protein.ActiveResidues>
 ASP403  THR404  LEU406  ILE407  TYR408  ALA410  LYS411  TRP414  TRP426  SER427 
 LYS428  LEU429  GLN430  VAL431  PHE432  ASP433  TYR453  SER462  ALA463  ILE464 

> <Gold.Protein.RotatedAtoms>
  195.1368   -2.5788   37.4104 H   0  0  0  0  0  0  0  0  0  0  0  0  # atno 6595 bound_to 6557
  197.7136   -2.2905   38.9579 H   0  0  0  0  0  0  0  0  0  0  0  0  # atno 6682 bound_to 6637
  196.9991    0.1988   42.0466 H   0  0  0  0  0  0  0  0  0  0  0  0  # atno 6826 bound_to 6786
  197.7812   -0.7018   50.5616 H   0  0  0  0  0  0  0  0  0  0  0  0  # atno 7893 bound_to 7875
  198.7360   -3.0915   51.2754 H   0  0  0  0  0  0  0  0  0  0  0  0  # atno 7902 bound_to 7880
  194.9029   -1.3395   49.8431 H   0  0  0  0  0  0  0  0  0  0  0  0  # atno 7962 bound_to 7922
  192.0768   -2.7789   48.7677 H   0  0  0  0  0  0  0  0  0  0  0  0  # atno 8044 bound_to 8009
  190.7458   -2.6930   46.3506 H   0  0  0  0  0  0  0  0  0  0  0  0  # atno 8121 bound_to 8086
  189.8665   -2.3623   43.4320 H   0  0  0  0  0  0  0  0  0  0  0  0  # atno 8182 bound_to 8152
  188.8172   -2.0541   39.7358 H   0  0  0  0  0  0  0  0  0  0  0  0  # atno 8262 bound_to 8220
  187.0831   -3.5462   36.7790 H   0  0  0  0  0  0  0  0  0  0  0  0  # atno 8325 bound_to 8297
  185.5813   -5.6410   48.5083 H   0  0  0  0  0  0  0  0  0  0  0  0  # atno 9562 bound_to 9520
  188.4523    1.6188   44.1393 H   0  0  0  0  0  0  0  0  0  0  0  0  # atno 10204 bound_to 10169
  194.7543   -4.7619   36.2552 LP  0  0  0  0  0  0  0  0  0  0  0  0  # atno 27193 bound_to 6320
  196.3025   -5.0923   36.9580 LP  0  0  0  0  0  0  0  0  0  0  0  0  # atno 27194 bound_to 6320
  196.7851   -3.0970   37.6662 LP  0  0  0  0  0  0  0  0  0  0  0  0  # atno 27195 bound_to 6557
  196.0259   -1.7739   41.8740 LP  0  0  0  0  0  0  0  0  0  0  0  0  # atno 27196 bound_to 6560
  197.1985   -0.7175   41.1604 LP  0  0  0  0  0  0  0  0  0  0  0  0  # atno 27197 bound_to 6560
  197.5098   -3.5327   40.1748 LP  0  0  0  0  0  0  0  0  0  0  0  0  # atno 27198 bound_to 6637
  196.3401   -4.2159   47.9280 LP  0  0  0  0  0  0  0  0  0  0  0  0  # atno 27199 bound_to 7878
  194.6464   -4.1539   48.2848 LP  0  0  0  0  0  0  0  0  0  0  0  0  # atno 27200 bound_to 7878
  193.5513   -2.4491   47.8897 LP  0  0  0  0  0  0  0  0  0  0  0  0  # atno 27201 bound_to 8009
  192.8165   -2.7346   45.0194 LP  0  0  0  0  0  0  0  0  0  0  0  0  # atno 27202 bound_to 8012
  191.6733   -4.0264   45.1762 LP  0  0  0  0  0  0  0  0  0  0  0  0  # atno 27203 bound_to 8012
  189.5687   -1.4048   46.2223 LP  0  0  0  0  0  0  0  0  0  0  0  0  # atno 27204 bound_to 8086
  189.2293   -0.3594   43.6384 LP  0  0  0  0  0  0  0  0  0  0  0  0  # atno 27205 bound_to 8089
  187.6529   -1.0628   43.4959 LP  0  0  0  0  0  0  0  0  0  0  0  0  # atno 27206 bound_to 8089
  189.3992   -3.8608   42.6571 LP  0  0  0  0  0  0  0  0  0  0  0  0  # atno 27207 bound_to 8152
  188.7882   -4.2326   39.0245 LP  0  0  0  0  0  0  0  0  0  0  0  0  # atno 27208 bound_to 8155
  188.6893   -4.6983   40.6898 LP  0  0  0  0  0  0  0  0  0  0  0  0  # atno 27209 bound_to 8155
  187.5186   -1.5490   40.7868 LP  0  0  0  0  0  0  0  0  0  0  0  0  # atno 27210 bound_to 8220
  186.4202   -4.3645   47.9467 LP  0  0  0  0  0  0  0  0  0  0  0  0  # atno 27211 bound_to 9520
  186.2484   -5.7016   47.0251 LP  0  0  0  0  0  0  0  0  0  0  0  0  # atno 27212 bound_to 9520
  187.8397   -2.1400   37.4944 LP  0  0  0  0  0  0  0  0  0  0  0  0  # atno 27213 bound_to 8297
  187.9087   -1.0692   46.8652 LP  0  0  0  0  0  0  0  0  0  0  0  0  # atno 27214 bound_to 10086
  187.4410   -1.2641   48.5215 LP  0  0  0  0  0  0  0  0  0  0  0  0  # atno 27215 bound_to 10086
  187.1367    0.8580   43.2719 LP  0  0  0  0  0  0  0  0  0  0  0  0  # atno 27216 bound_to 10169
  188.5127    0.1364   40.9931 LP  0  0  0  0  0  0  0  0  0  0  0  0  # atno 27217 bound_to 10172
  186.8935    0.0625   40.3827 LP  0  0  0  0  0  0  0  0  0  0  0  0  # atno 27218 bound_to 10172
  195.6689   -2.9023   50.0254 LP  0  0  0  0  0  0  0  0  0  0  0  0  # atno 27219 bound_to 7922
  198.3189   -4.0453   37.9796 LP  0  0  0  0  0  0  0  0  0  0  0  0  # atno 27220 bound_to 6367
  198.3768   -5.6062   38.7280 LP  0  0  0  0  0  0  0  0  0  0  0  0  # atno 27221 bound_to 6367
  191.0176   -0.9067   49.4378 LP  0  0  0  0  0  0  0  0  0  0  0  0  # atno 27222 bound_to 7925
  192.2061   -0.7663   50.6899 LP  0  0  0  0  0  0  0  0  0  0  0  0  # atno 27223 bound_to 7925
  196.0565   -0.5566   47.6321 LP  0  0  0  0  0  0  0  0  0  0  0  0  # atno 27224 bound_to 7790
  195.9725    1.1724   47.6913 LP  0  0  0  0  0  0  0  0  0  0  0  0  # atno 27225 bound_to 7790
  196.4027   -0.1350   49.6593 LP  0  0  0  0  0  0  0  0  0  0  0  0  # atno 27226 bound_to 7875
  198.2616   -4.5088   50.6308 LP  0  0  0  0  0  0  0  0  0  0  0  0  # atno 27227 bound_to 7880
  197.1601   -3.3492   50.9604 LP  0  0  0  0  0  0  0  0  0  0  0  0  # atno 27228 bound_to 7880

> <Gold.Score>
     Fitness  S(hb_ext) S(vdw_ext)  S(hb_int)    S(int)      intcor
     33.47       8.28      18.88       0.00      -0.77      -0.76

> <Gold.Goldscore.Fitness>
33.4743

> <Gold.Goldscore.Internal.Vdw>
-0.9270

> <Gold.Goldscore.Internal.Torsion>
-0.5999

> <Gold.Goldscore.External.Vdw>
18.8846

> <Gold.Goldscore.Internal.HBond>
0.0000

> <Gold.Goldscore.External.HBond>
8.2776

> <Gold.Goldscore.Internal.Correction>
-0.7573

> <Gold.Goldscore.Hbonds>
donor molecule, donor type, donor heavy atom, donor atom, acceptor molecule, acceptor atom, score
      P1  H  6794  6837       L1    11  0.36
      P1  H  8093  8127       L1     9  0.05
      L1  H     8    22       P1  8094  1.00

> <Gold.Goldscore.Internal.Vdw.Weighted>
-0.9270

> <Gold.Goldscore.Internal.Torsion.Weighted>
-0.5999

> <Gold.Goldscore.External.Vdw.Weighted>
25.9663

> <Gold.Goldscore.Internal.HBond.Weighted>
0.0000

> <Gold.Goldscore.External.HBond.Weighted>
8.2776

> <Gold.Goldscore.Internal.Correction.Weighted>
-0.7573

> <Gold.Rescore>
     Score     S(PLP)   S(hbond)     S(cho)   S(metal)  DE(clash)   DE(tors)     intcor
     30.09     -24.60       2.33       0.00       0.00       1.21       0.14       ----

> <Gold.PLP.Fitness>
30.0949

> <Gold.PLP.PLP>
-24.6007

> <Gold.PLP.part.hbond>
-3.5700

> <Gold.PLP.part.metal>
0.0000

> <Gold.PLP.part.buried>
-4.2798

> <Gold.PLP.part.nonpolar>
-18.1989

> <Gold.PLP.part.repulsive>
0.7932

> <Gold.PLP.ligand.clash>
1.2082

> <Gold.PLP.ligand.torsion>
0.1404

> <Gold.PLP.Chemscore.Hbond>
2.3278

> <Gold.PLP.Chemscore.CHOScore>
0.0000

> <Gold.PLP.Chemscore.Metal>
0.0000

> <Gold.Chemscore.Hbonds>
donor molecule, donor type, donor heavy atom, donor atom, acceptor molecule, acceptor atom, score
      L1  H     8    22       P1  8094  0.40
      P1  H  6794  6837       L1    11  1.00
      P1  H  8093  8127       L1     9  0.85

> <Gold.PLP.Chemscore.Internal.Correction>
   9.000000E+99

