#       Name:                CT1002167954
#       Creating user name   hitesit
#       Creation time:       Sun Apr 16 22:58:01 2023


#       File generated by GOLD software.
#

@<TRIPOS>MOLECULE
CT1002167954|ligand_prepared|mol2|1|dock2
    29    30     1
SMALL
NO_CHARGES


@<TRIPOS>ATOM
      1 C1         191.7471  -6.1779  47.9453 C.3            1 RES1               0.0000
      2 C2         190.8100  -5.1884  48.6675 C.ar           1 RES1               0.0000
      3 C3         193.0630  -5.4380  47.7239 C.2            1 RES1               0.0000
      4 C4         191.8637  -7.3961  48.8548 C.2            1 RES1               0.0000
      5 C5         191.2149  -6.6548  46.5739 C.3            1 RES1               0.0000
      6 C6         189.9182  -4.4012  47.9452 C.ar           1 RES1               0.0000
      7 C7         190.8240  -5.0537  50.0533 C.ar           1 RES1               0.0000
      8 N8         194.1236  -5.7870  48.5069 N.am           1 RES1               0.0000
      9 O9         193.1578  -4.5348  46.9020 O.2            1 RES1               0.0000
     10 N10        193.0867  -7.6685  49.4096 N.am           1 RES1               0.0000
     11 O11        190.9037  -8.1130  49.1092 O.2            1 RES1               0.0000
     12 C12        191.9849  -7.8299  45.9922 C.3            1 RES1               0.0000
     13 C13        189.0690  -3.5137  48.5851 C.ar           1 RES1               0.0000
     14 C14        189.9741  -4.1654  50.6912 C.ar           1 RES1               0.0000
     15 C15        194.2147  -6.9016  49.3014 C.2            1 RES1               0.0000
     16 C16        189.0960  -3.3955  49.9584 C.ar           1 RES1               0.0000
     17 O17        195.2631  -7.1834  49.8747 O.2            1 RES1               0.0000
     18 H18        190.1620  -6.9425  46.6843 H              1 RES1               0.0000
     19 H19        191.2612  -5.8175  45.8666 H              1 RES1               0.0000
     20 H20        189.8844  -4.4787  46.8636 H              1 RES1               0.0000
     21 H21        191.5072  -5.6484  50.6500 H              1 RES1               0.0000
     22 H22        194.9230  -5.1615  48.5013 H              1 RES1               0.0000
     23 H23        193.1634  -8.5221  49.9535 H              1 RES1               0.0000
     24 H24        191.5707  -8.1243  45.0302 H              1 RES1               0.0000
     25 H25        193.0314  -7.5706  45.8455 H              1 RES1               0.0000
     26 H26        191.9387  -8.6889  46.6584 H              1 RES1               0.0000
     27 H27        188.3808  -2.9091  48.0037 H              1 RES1               0.0000
     28 H28        189.9992  -4.0752  51.7722 H              1 RES1               0.0000
     29 H29        188.4304  -2.7004  50.4595 H              1 RES1               0.0000
@<TRIPOS>BOND
    1    1    2 1     
    2    1    3 1     
    3    1    4 1     
    4    1    5 1     
    5    2    6 ar    
    6    2    7 ar    
    7    3    8 1     
    8    3    9 2     
    9    4   10 1     
   10    4   11 2     
   11    5   12 1     
   12    5   18 1     
   13    5   19 1     
   14    6   13 ar    
   15    6   20 1     
   16    7   14 ar    
   17    7   21 1     
   18    8   15 1     
   19    8   22 1     
   20   10   15 1     
   21   10   23 1     
   22   12   24 1     
   23   12   25 1     
   24   12   26 1     
   25   13   16 ar    
   26   13   27 1     
   27   14   16 ar    
   28   14   28 1     
   29   15   17 2     
   30   16   29 1     
@<TRIPOS>SUBSTRUCTURE
      1 RES1           1
@<TRIPOS>SET
DONOR_HYDROGENS      STATIC     ATOMS    <user>   **** ""
2 22 23
ATOM$RED        STATIC     ATOMS    COLORGROUP SYSTEM
2 22 23
@<TRIPOS>COMMENT
> <Gold.Version>
2022.3.0

> <Gold.Id.Protein>
unknown|4d1n_clean|pdb

> <Gold.Protein.RotatedTorsions>
[ 6595 6557 6558 6559 ] final  179.91 input  116.17 | X-H torsion
[ 6682 6637 6638 6639 ] final -134.69 input  120.05 | X-H torsion
[ 8044 8009 8010 8011 ] final  -55.63 input   40.01 | X-H torsion
[ 8121 8086 8087 8088 ] final  -90.61 input   93.99 | X-H torsion
[ 8182 8152 8153 8154 ] final  -28.21 input   75.44 | X-H torsion
[ 8262 8220 8221 8222 ] final  -16.89 input   81.29 | X-H torsion
[ 9562 9520 9519 9517 ] final  -33.38 input   60.00 | X-H torsion
[ 8325 8297 8298 8299 ] final  148.07 input   91.63 | X-H torsion
[ 10204 10169 10170 10171 ] final   95.00 input   34.07 | X-H torsion
[ 7962 7922 7923 7924 ] final   89.09 input   79.92 | X-H torsion
[ 7893 7875 7876 7877 ] final  151.65 input   91.72 | X-H torsion
[ 7902 7880 7879 7876 ] final   72.82 input   60.02 | X-H torsion
[ 6826 6786 6787 6788 ] final   44.67 input  113.73 | X-H torsion
[ 27193 6320 6319 6318 ] final  -91.78 input    0.00 | X-H torsion
[ 27196 6560 6559 6558 ] final   59.56 input    0.00 | X-H torsion
[ 27199 7878 7877 7876 ] final  161.48 input    0.00 | X-H torsion
[ 27202 8012 8011 8010 ] final  174.49 input    0.00 | X-H torsion
[ 27205 8089 8088 8087 ] final -122.98 input   -0.00 | X-H torsion
[ 27208 8155 8154 8153 ] final  -10.80 input   -0.00 | X-H torsion
[ 27214 10086 10085 10084 ] final -133.79 input    0.00 | X-H torsion
[ 27217 10172 10171 10170 ] final  -55.88 input    0.00 | X-H torsion
[ 27220 6367 6366 6365 ] final -133.23 input    0.00 | X-H torsion
[ 27222 7925 7924 7923 ] final  -22.61 input   -0.00 | X-H torsion
[ 27224 7790 7789 7788 ] final   91.76 input   -0.00 | X-H torsion

> <Gold.Protein.ActiveResidues>
 ASP403  THR404  LEU406  ILE407  TYR408  ALA410  LYS411  TRP414  TRP426  SER427 
 LYS428  LEU429  GLN430  VAL431  PHE432  ASP433  TYR453  SER462  ALA463  ILE464 

> <Gold.Protein.RotatedAtoms>
  195.1909   -3.2223   37.3764 H   0  0  0  0  0  0  0  0  0  0  0  0  # atno 6595 bound_to 6557
  197.4623   -3.4605   40.2708 H   0  0  0  0  0  0  0  0  0  0  0  0  # atno 6682 bound_to 6637
  197.5179    0.9405   41.9416 H   0  0  0  0  0  0  0  0  0  0  0  0  # atno 6826 bound_to 6786
  197.9544   -0.4806   50.2180 H   0  0  0  0  0  0  0  0  0  0  0  0  # atno 7893 bound_to 7875
  197.3705   -4.2026   50.6349 H   0  0  0  0  0  0  0  0  0  0  0  0  # atno 7902 bound_to 7880
  195.1222   -1.6259   50.6453 H   0  0  0  0  0  0  0  0  0  0  0  0  # atno 7962 bound_to 7922
  192.0918   -3.0882   48.4672 H   0  0  0  0  0  0  0  0  0  0  0  0  # atno 8044 bound_to 8009
  190.9020   -2.4364   46.0343 H   0  0  0  0  0  0  0  0  0  0  0  0  # atno 8121 bound_to 8086
  188.7609   -3.2376   42.8763 H   0  0  0  0  0  0  0  0  0  0  0  0  # atno 8182 bound_to 8152
  188.7526   -1.6332   39.6346 H   0  0  0  0  0  0  0  0  0  0  0  0  # atno 8262 bound_to 8220
  188.1702   -3.3483   37.3129 H   0  0  0  0  0  0  0  0  0  0  0  0  # atno 8325 bound_to 8297
  186.5729   -4.5335   47.4525 H   0  0  0  0  0  0  0  0  0  0  0  0  # atno 9562 bound_to 9520
  188.6022    0.9044   43.5851 H   0  0  0  0  0  0  0  0  0  0  0  0  # atno 10204 bound_to 10169
  196.0760   -4.4124   36.1761 LP  0  0  0  0  0  0  0  0  0  0  0  0  # atno 27193 bound_to 6320
  194.9809   -5.4417   37.0371 LP  0  0  0  0  0  0  0  0  0  0  0  0  # atno 27194 bound_to 6320
  196.7322   -2.4666   37.6995 LP  0  0  0  0  0  0  0  0  0  0  0  0  # atno 27195 bound_to 6557
  196.1566   -1.8395   41.9529 LP  0  0  0  0  0  0  0  0  0  0  0  0  # atno 27196 bound_to 6560
  197.0678   -0.6519   41.0814 LP  0  0  0  0  0  0  0  0  0  0  0  0  # atno 27197 bound_to 6560
  197.7526   -2.4024   38.9064 LP  0  0  0  0  0  0  0  0  0  0  0  0  # atno 27198 bound_to 6637
  194.8529   -4.4489   48.6262 LP  0  0  0  0  0  0  0  0  0  0  0  0  # atno 27199 bound_to 7878
  196.1336   -3.9209   47.5866 LP  0  0  0  0  0  0  0  0  0  0  0  0  # atno 27200 bound_to 7878
  193.5366   -2.1471   48.1832 LP  0  0  0  0  0  0  0  0  0  0  0  0  # atno 27201 bound_to 8009
  191.5457   -3.7425   44.7372 LP  0  0  0  0  0  0  0  0  0  0  0  0  # atno 27202 bound_to 8012
  192.9441   -3.0185   45.4584 LP  0  0  0  0  0  0  0  0  0  0  0  0  # atno 27203 bound_to 8012
  189.4173   -1.6537   46.5291 LP  0  0  0  0  0  0  0  0  0  0  0  0  # atno 27204 bound_to 8086
  187.8971   -0.9811   42.9497 LP  0  0  0  0  0  0  0  0  0  0  0  0  # atno 27205 bound_to 8089
  188.9851   -0.4411   44.1845 LP  0  0  0  0  0  0  0  0  0  0  0  0  # atno 27206 bound_to 8089
  190.4678   -3.0148   43.1942 LP  0  0  0  0  0  0  0  0  0  0  0  0  # atno 27207 bound_to 8152
  189.5184   -4.5720   40.2188 LP  0  0  0  0  0  0  0  0  0  0  0  0  # atno 27208 bound_to 8155
  187.9591   -4.3589   39.4956 LP  0  0  0  0  0  0  0  0  0  0  0  0  # atno 27209 bound_to 8155
  187.5821   -1.9631   40.8864 LP  0  0  0  0  0  0  0  0  0  0  0  0  # atno 27210 bound_to 8220
  185.9513   -6.0334   47.3414 LP  0  0  0  0  0  0  0  0  0  0  0  0  # atno 27211 bound_to 9520
  185.7186   -5.1482   48.6937 LP  0  0  0  0  0  0  0  0  0  0  0  0  # atno 27212 bound_to 9520
  186.7863   -2.3317   36.9771 LP  0  0  0  0  0  0  0  0  0  0  0  0  # atno 27213 bound_to 8297
  188.2227   -1.0863   47.0275 LP  0  0  0  0  0  0  0  0  0  0  0  0  # atno 27214 bound_to 10086
  187.1270   -1.2470   48.3593 LP  0  0  0  0  0  0  0  0  0  0  0  0  # atno 27215 bound_to 10086
  186.9914    1.5504   43.8090 LP  0  0  0  0  0  0  0  0  0  0  0  0  # atno 27216 bound_to 10169
  188.5621    0.1767   40.7663 LP  0  0  0  0  0  0  0  0  0  0  0  0  # atno 27217 bound_to 10172
  186.8441    0.0223   40.6096 LP  0  0  0  0  0  0  0  0  0  0  0  0  # atno 27218 bound_to 10172
  195.4563   -2.6248   49.2478 LP  0  0  0  0  0  0  0  0  0  0  0  0  # atno 27219 bound_to 7922
  198.0359   -4.0966   38.0060 LP  0  0  0  0  0  0  0  0  0  0  0  0  # atno 27220 bound_to 6367
  198.6598   -5.5549   38.7016 LP  0  0  0  0  0  0  0  0  0  0  0  0  # atno 27221 bound_to 6367
  191.6921   -1.2313   50.8305 LP  0  0  0  0  0  0  0  0  0  0  0  0  # atno 27222 bound_to 7925
  191.5316   -0.4417   49.2972 LP  0  0  0  0  0  0  0  0  0  0  0  0  # atno 27223 bound_to 7925
  196.8142    0.4047   47.3437 LP  0  0  0  0  0  0  0  0  0  0  0  0  # atno 27224 bound_to 7790
  195.2148    0.2111   47.9797 LP  0  0  0  0  0  0  0  0  0  0  0  0  # atno 27225 bound_to 7790
  196.2302   -0.3553   50.0014 LP  0  0  0  0  0  0  0  0  0  0  0  0  # atno 27226 bound_to 7875
  197.8492   -2.7886   51.2836 LP  0  0  0  0  0  0  0  0  0  0  0  0  # atno 27227 bound_to 7880
  198.9470   -3.9511   50.9523 LP  0  0  0  0  0  0  0  0  0  0  0  0  # atno 27228 bound_to 7880

> <Gold.Score>
     Fitness  S(hb_ext) S(vdw_ext)  S(hb_int)    S(int)      intcor
     32.05       1.13      22.88       0.00      -0.55      -0.76

> <Gold.Goldscore.Fitness>
32.0452

> <Gold.Goldscore.Internal.Vdw>
-0.7341

> <Gold.Goldscore.Internal.Torsion>
-0.5756

> <Gold.Goldscore.External.Vdw>
22.8811

> <Gold.Goldscore.Internal.HBond>
0.0000

> <Gold.Goldscore.External.HBond>
1.1348

> <Gold.Goldscore.Internal.Correction>
-0.7585

> <Gold.Goldscore.Hbonds>
donor molecule, donor type, donor heavy atom, donor atom, acceptor molecule, acceptor atom, score
      L1  H     8    22       P1  7878  0.57

> <Gold.Goldscore.Internal.Vdw.Weighted>
-0.7341

> <Gold.Goldscore.Internal.Torsion.Weighted>
-0.5756

> <Gold.Goldscore.External.Vdw.Weighted>
31.4615

> <Gold.Goldscore.Internal.HBond.Weighted>
0.0000

> <Gold.Goldscore.External.HBond.Weighted>
1.1348

> <Gold.Goldscore.Internal.Correction.Weighted>
-0.7585

> <Gold.Rescore>
     Score     S(PLP)   S(hbond)     S(cho)   S(metal)  DE(clash)   DE(tors)     intcor
     33.70     -30.46       1.47       0.00       0.00       0.00       0.58       ----

> <Gold.PLP.Fitness>
33.6951

> <Gold.PLP.PLP>
-30.4572

> <Gold.PLP.part.hbond>
-1.7572

> <Gold.PLP.part.metal>
0.0000

> <Gold.PLP.part.buried>
-5.7200

> <Gold.PLP.part.nonpolar>
-25.5160

> <Gold.PLP.part.repulsive>
1.8808

> <Gold.PLP.ligand.clash>
0.0000

> <Gold.PLP.ligand.torsion>
0.5785

> <Gold.PLP.Chemscore.Hbond>
1.4650

> <Gold.PLP.Chemscore.CHOScore>
0.0000

> <Gold.PLP.Chemscore.Metal>
0.0000

> <Gold.Chemscore.Hbonds>
donor molecule, donor type, donor heavy atom, donor atom, acceptor molecule, acceptor atom, score
      L1  H     8    22       P1  7878  0.80

> <Gold.PLP.Chemscore.Internal.Correction>
   9.000000E+99

