#       Name:                CT1002167954
#       Creating user name   hitesit
#       Creation time:       Sun Apr 16 22:58:02 2023


#       File generated by GOLD software.
#

@<TRIPOS>MOLECULE
CT1002167954|ligand_prepared|mol2|1|dock5
    29    30     1
SMALL
NO_CHARGES


@<TRIPOS>ATOM
      1 C1         190.7229  -5.9649  48.4233 C.3            1 RES1               0.0000
      2 C2         190.1381  -4.9392  49.4157 C.ar           1 RES1               0.0000
      3 C3         191.8853  -6.6427  49.1429 C.2            1 RES1               0.0000
      4 C4         189.5806  -6.9075  48.0613 C.2            1 RES1               0.0000
      5 C5         191.2554  -5.3350  47.1151 C.3            1 RES1               0.0000
      6 C6         190.2308  -5.1490  50.7884 C.ar           1 RES1               0.0000
      7 C7         189.5066  -3.7795  48.9745 C.ar           1 RES1               0.0000
      8 N8         191.7000  -7.9224  49.5765 N.am           1 RES1               0.0000
      9 O9         192.9345  -6.0498  49.3615 O.2            1 RES1               0.0000
     10 N10        189.6808  -8.2173  48.4514 N.am           1 RES1               0.0000
     11 O11        188.5869  -6.5242  47.4564 O.2            1 RES1               0.0000
     12 C12        191.9894  -6.3174  46.2161 C.3            1 RES1               0.0000
     13 C13        189.7136  -4.2312  51.6875 C.ar           1 RES1               0.0000
     14 C14        188.9898  -2.8630  49.8754 C.ar           1 RES1               0.0000
     15 C15        190.6745  -8.7606  49.2193 C.2            1 RES1               0.0000
     16 C16        189.0932  -3.0875  51.2317 C.ar           1 RES1               0.0000
     17 O17        190.6672  -9.9354  49.5755 O.2            1 RES1               0.0000
     18 H18        190.4109  -4.9101  46.5586 H              1 RES1               0.0000
     19 H19        191.9361  -4.5135  47.3703 H              1 RES1               0.0000
     20 H20        190.7134  -6.0445  51.1657 H              1 RES1               0.0000
     21 H21        189.4128  -3.5825  47.9120 H              1 RES1               0.0000
     22 H22        192.3874  -8.2901  50.2266 H              1 RES1               0.0000
     23 H23        188.9467  -8.8456  48.1405 H              1 RES1               0.0000
     24 H24        192.3419  -5.8242  45.3126 H              1 RES1               0.0000
     25 H25        192.8504  -6.7407  46.7291 H              1 RES1               0.0000
     26 H26        191.3343  -7.1349  45.9222 H              1 RES1               0.0000
     27 H27        189.7963  -4.4132  52.7539 H              1 RES1               0.0000
     28 H28        188.5019  -1.9646  49.5122 H              1 RES1               0.0000
     29 H29        188.6884  -2.3685  51.9363 H              1 RES1               0.0000
@<TRIPOS>BOND
    1    1    2 1     
    2    1    3 1     
    3    1    4 1     
    4    1    5 1     
    5    2    6 ar    
    6    2    7 ar    
    7    3    8 1     
    8    3    9 2     
    9    4   10 1     
   10    4   11 2     
   11    5   12 1     
   12    5   18 1     
   13    5   19 1     
   14    6   13 ar    
   15    6   20 1     
   16    7   14 ar    
   17    7   21 1     
   18    8   15 1     
   19    8   22 1     
   20   10   15 1     
   21   10   23 1     
   22   12   24 1     
   23   12   25 1     
   24   12   26 1     
   25   13   16 ar    
   26   13   27 1     
   27   14   16 ar    
   28   14   28 1     
   29   15   17 2     
   30   16   29 1     
@<TRIPOS>SUBSTRUCTURE
      1 RES1           1
@<TRIPOS>SET
DONOR_HYDROGENS      STATIC     ATOMS    <user>   **** ""
2 22 23
ATOM$RED        STATIC     ATOMS    COLORGROUP SYSTEM
2 22 23
@<TRIPOS>COMMENT
> <Gold.Version>
2022.3.0

> <Gold.Id.Protein>
unknown|4d1n_clean|pdb

> <Gold.Protein.RotatedTorsions>
[ 6595 6557 6558 6559 ] final  112.98 input  116.17 | X-H torsion
[ 6682 6637 6638 6639 ] final    3.39 input  120.05 | X-H torsion
[ 8044 8009 8010 8011 ] final -152.45 input   40.01 | X-H torsion
[ 8121 8086 8087 8088 ] final   -1.59 input   93.99 | X-H torsion
[ 8182 8152 8153 8154 ] final  -17.35 input   75.44 | X-H torsion
[ 8262 8220 8221 8222 ] final    3.15 input   81.29 | X-H torsion
[ 9562 9520 9519 9517 ] final   35.17 input   60.00 | X-H torsion
[ 8325 8297 8298 8299 ] final  -90.19 input   91.63 | X-H torsion
[ 10204 10169 10170 10171 ] final  136.04 input   34.07 | X-H torsion
[ 7962 7922 7923 7924 ] final  144.56 input   79.92 | X-H torsion
[ 7893 7875 7876 7877 ] final -122.24 input   91.72 | X-H torsion
[ 7902 7880 7879 7876 ] final  168.03 input   60.02 | X-H torsion
[ 6826 6786 6787 6788 ] final   -0.19 input  113.73 | X-H torsion
[ 27193 6320 6319 6318 ] final   -4.09 input    0.00 | X-H torsion
[ 27196 6560 6559 6558 ] final -105.69 input    0.00 | X-H torsion
[ 27199 7878 7877 7876 ] final   74.22 input    0.00 | X-H torsion
[ 27202 8012 8011 8010 ] final  -80.12 input    0.00 | X-H torsion
[ 27205 8089 8088 8087 ] final -127.95 input   -0.00 | X-H torsion
[ 27208 8155 8154 8153 ] final  -28.37 input   -0.00 | X-H torsion
[ 27214 10086 10085 10084 ] final  128.71 input    0.00 | X-H torsion
[ 27217 10172 10171 10170 ] final    8.14 input    0.00 | X-H torsion
[ 27220 6367 6366 6365 ] final  159.67 input    0.00 | X-H torsion
[ 27222 7925 7924 7923 ] final   42.86 input   -0.00 | X-H torsion
[ 27224 7790 7789 7788 ] final  176.82 input   -0.00 | X-H torsion

> <Gold.Protein.ActiveResidues>
 ASP403  THR404  LEU406  ILE407  TYR408  ALA410  LYS411  TRP414  TRP426  SER427 
 LYS428  LEU429  GLN430  VAL431  PHE432  ASP433  TYR453  SER462  ALA463  ILE464 

> <Gold.Protein.RotatedAtoms>
  196.0195   -3.7201   37.4897 H   0  0  0  0  0  0  0  0  0  0  0  0  # atno 6595 bound_to 6557
  197.4421   -2.0790   39.3453 H   0  0  0  0  0  0  0  0  0  0  0  0  # atno 6682 bound_to 6637
  197.3245    1.5788   42.0283 H   0  0  0  0  0  0  0  0  0  0  0  0  # atno 6826 bound_to 6786
  197.2741    0.0554   49.3993 H   0  0  0  0  0  0  0  0  0  0  0  0  # atno 7893 bound_to 7875
  198.7435   -4.2617   50.7947 H   0  0  0  0  0  0  0  0  0  0  0  0  # atno 7902 bound_to 7880
  195.4784   -2.3613   50.7740 H   0  0  0  0  0  0  0  0  0  0  0  0  # atno 7962 bound_to 7922
  192.6941   -2.0240   48.9710 H   0  0  0  0  0  0  0  0  0  0  0  0  # atno 8044 bound_to 8009
  190.2932   -1.4117   45.6736 H   0  0  0  0  0  0  0  0  0  0  0  0  # atno 8121 bound_to 8086
  188.8090   -3.3839   42.8081 H   0  0  0  0  0  0  0  0  0  0  0  0  # atno 8182 bound_to 8152
  188.6192   -1.3584   39.6566 H   0  0  0  0  0  0  0  0  0  0  0  0  # atno 8262 bound_to 8220
  187.4613   -1.9676   37.3487 H   0  0  0  0  0  0  0  0  0  0  0  0  # atno 8325 bound_to 8297
  186.1368   -4.5069   48.4123 H   0  0  0  0  0  0  0  0  0  0  0  0  # atno 9562 bound_to 9520
  188.6129    1.3853   43.9809 H   0  0  0  0  0  0  0  0  0  0  0  0  # atno 10204 bound_to 10169
  194.8930   -4.6030   36.1155 LP  0  0  0  0  0  0  0  0  0  0  0  0  # atno 27193 bound_to 6320
  196.1639   -5.2511   37.0977 LP  0  0  0  0  0  0  0  0  0  0  0  0  # atno 27194 bound_to 6320
  195.9206   -1.9790   37.5885 LP  0  0  0  0  0  0  0  0  0  0  0  0  # atno 27195 bound_to 6557
  196.8674   -0.5986   41.0013 LP  0  0  0  0  0  0  0  0  0  0  0  0  # atno 27196 bound_to 6560
  196.3569   -1.8928   42.0331 LP  0  0  0  0  0  0  0  0  0  0  0  0  # atno 27197 bound_to 6560
  197.7721   -3.7370   39.8006 LP  0  0  0  0  0  0  0  0  0  0  0  0  # atno 27198 bound_to 6637
  196.0297   -4.6554   48.5972 LP  0  0  0  0  0  0  0  0  0  0  0  0  # atno 27199 bound_to 7878
  194.9568   -3.7144   47.6156 LP  0  0  0  0  0  0  0  0  0  0  0  0  # atno 27200 bound_to 7878
  192.9484   -3.1864   47.6912 LP  0  0  0  0  0  0  0  0  0  0  0  0  # atno 27201 bound_to 8009
  192.4424   -2.7070   44.5905 LP  0  0  0  0  0  0  0  0  0  0  0  0  # atno 27202 bound_to 8012
  192.0474   -4.0541   45.6051 LP  0  0  0  0  0  0  0  0  0  0  0  0  # atno 27203 bound_to 8012
  190.0078   -2.6476   46.8789 LP  0  0  0  0  0  0  0  0  0  0  0  0  # atno 27204 bound_to 8086
  187.9490   -0.9605   42.8995 LP  0  0  0  0  0  0  0  0  0  0  0  0  # atno 27205 bound_to 8089
  188.9332   -0.4617   44.2347 LP  0  0  0  0  0  0  0  0  0  0  0  0  # atno 27206 bound_to 8089
  190.4213   -2.8734   43.2601 LP  0  0  0  0  0  0  0  0  0  0  0  0  # atno 27207 bound_to 8152
  189.5959   -4.5042   39.9750 LP  0  0  0  0  0  0  0  0  0  0  0  0  # atno 27208 bound_to 8155
  187.8817   -4.4267   39.7393 LP  0  0  0  0  0  0  0  0  0  0  0  0  # atno 27209 bound_to 8155
  187.7133   -2.2334   40.8648 LP  0  0  0  0  0  0  0  0  0  0  0  0  # atno 27210 bound_to 8220
  186.4962   -5.1956   46.9823 LP  0  0  0  0  0  0  0  0  0  0  0  0  # atno 27211 bound_to 9520
  185.6129   -6.0128   48.0862 LP  0  0  0  0  0  0  0  0  0  0  0  0  # atno 27212 bound_to 9520
  187.4732   -3.6695   36.9425 LP  0  0  0  0  0  0  0  0  0  0  0  0  # atno 27213 bound_to 8297
  186.9384   -1.1183   47.2403 LP  0  0  0  0  0  0  0  0  0  0  0  0  # atno 27214 bound_to 10086
  188.4113   -1.2150   48.1464 LP  0  0  0  0  0  0  0  0  0  0  0  0  # atno 27215 bound_to 10086
  186.9811    1.0843   43.4254 LP  0  0  0  0  0  0  0  0  0  0  0  0  # atno 27216 bound_to 10169
  188.0208    0.0086   41.4884 LP  0  0  0  0  0  0  0  0  0  0  0  0  # atno 27217 bound_to 10172
  187.3855    0.1903   39.8874 LP  0  0  0  0  0  0  0  0  0  0  0  0  # atno 27218 bound_to 10172
  195.1111   -1.9119   49.1231 LP  0  0  0  0  0  0  0  0  0  0  0  0  # atno 27219 bound_to 7922
  198.9706   -4.2847   38.0903 LP  0  0  0  0  0  0  0  0  0  0  0  0  # atno 27220 bound_to 6367
  197.7251   -5.3668   38.6173 LP  0  0  0  0  0  0  0  0  0  0  0  0  # atno 27221 bound_to 6367
  192.3051   -0.5936   50.5226 LP  0  0  0  0  0  0  0  0  0  0  0  0  # atno 27222 bound_to 7925
  190.9186   -1.0794   49.6051 LP  0  0  0  0  0  0  0  0  0  0  0  0  # atno 27223 bound_to 7925
  196.1686   -0.5411   47.5876 LP  0  0  0  0  0  0  0  0  0  0  0  0  # atno 27224 bound_to 7790
  195.8605    1.1569   47.7359 LP  0  0  0  0  0  0  0  0  0  0  0  0  # atno 27225 bound_to 7790
  196.9077   -0.8890   50.8167 LP  0  0  0  0  0  0  0  0  0  0  0  0  # atno 27226 bound_to 7875
  197.1634   -3.8743   50.7447 LP  0  0  0  0  0  0  0  0  0  0  0  0  # atno 27227 bound_to 7880
  198.2507   -2.8059   51.3303 LP  0  0  0  0  0  0  0  0  0  0  0  0  # atno 27228 bound_to 7880

> <Gold.Score>
     Fitness  S(hb_ext) S(vdw_ext)  S(hb_int)    S(int)      intcor
     28.27       0.02      21.17       0.00      -0.86      -0.76

> <Gold.Goldscore.Fitness>
28.2723

> <Gold.Goldscore.Internal.Vdw>
-1.1649

> <Gold.Goldscore.Internal.Torsion>
-0.4556

> <Gold.Goldscore.External.Vdw>
21.1722

> <Gold.Goldscore.Internal.HBond>
0.0000

> <Gold.Goldscore.External.HBond>
0.0237

> <Gold.Goldscore.Internal.Correction>
-0.7573

> <Gold.Goldscore.Hbonds>
donor molecule, donor type, donor heavy atom, donor atom, acceptor molecule, acceptor atom, score
      P1  H  8093  8128       L1    11  0.01

> <Gold.Goldscore.Internal.Vdw.Weighted>
-1.1649

> <Gold.Goldscore.Internal.Torsion.Weighted>
-0.4556

> <Gold.Goldscore.External.Vdw.Weighted>
29.1118

> <Gold.Goldscore.Internal.HBond.Weighted>
0.0000

> <Gold.Goldscore.External.HBond.Weighted>
0.0237

> <Gold.Goldscore.Internal.Correction.Weighted>
-0.7573

> <Gold.Rescore>
     Score     S(PLP)   S(hbond)     S(cho)   S(metal)  DE(clash)   DE(tors)     intcor
     34.45     -33.71       0.93       0.00       0.00       0.00       1.02       ----

> <Gold.PLP.Fitness>
34.4539

> <Gold.PLP.PLP>
-33.7114

> <Gold.PLP.part.hbond>
-1.4091

> <Gold.PLP.part.metal>
0.0000

> <Gold.PLP.part.buried>
-4.5887

> <Gold.PLP.part.nonpolar>
-28.3430

> <Gold.PLP.part.repulsive>
0.0681

> <Gold.PLP.ligand.clash>
0.0000

> <Gold.PLP.ligand.torsion>
1.0208

> <Gold.PLP.Chemscore.Hbond>
0.9280

> <Gold.PLP.Chemscore.CHOScore>
0.0000

> <Gold.PLP.Chemscore.Metal>
0.0000

> <Gold.Chemscore.Hbonds>
donor molecule, donor type, donor heavy atom, donor atom, acceptor molecule, acceptor atom, score
      P1  H  8093  8128       L1    11  0.59

> <Gold.PLP.Chemscore.Internal.Correction>
   9.000000E+99

