#       Name:                CT1002167954
#       Creating user name   hitesit
#       Creation time:       Sun Apr 16 22:58:04 2023


#       File generated by GOLD software.
#

@<TRIPOS>MOLECULE
CT1002167954|ligand_prepared|mol2|1|dock8
    29    30     1
SMALL
NO_CHARGES


@<TRIPOS>ATOM
      1 C1         191.7086  -7.0572  45.0486 C.3            1 RES1               0.0000
      2 C2         191.5644  -6.4881  46.4748 C.ar           1 RES1               0.0000
      3 C3         193.1701  -7.4687  44.8972 C.2            1 RES1               0.0000
      4 C4         190.7226  -8.2160  44.9500 C.2            1 RES1               0.0000
      5 C5         191.3660  -6.0423  43.9332 C.3            1 RES1               0.0000
      6 C6         192.5155  -6.7716  47.4504 C.ar           1 RES1               0.0000
      7 C7         190.4892  -5.6773  46.8285 C.ar           1 RES1               0.0000
      8 N8         193.4563  -8.8020  44.9157 N.am           1 RES1               0.0000
      9 O9         194.0622  -6.6348  44.8028 O.2            1 RES1               0.0000
     10 N10        191.2300  -9.4793  44.7939 N.am           1 RES1               0.0000
     11 O11        189.5115  -8.0484  45.0229 O.2            1 RES1               0.0000
     12 C12        191.7797  -6.4969  42.5424 C.3            1 RES1               0.0000
     13 C13        192.3977  -6.2607  48.7323 C.ar           1 RES1               0.0000
     14 C14        190.3731  -5.1676  48.1112 C.ar           1 RES1               0.0000
     15 C15        192.5530  -9.8283  44.8031 C.2            1 RES1               0.0000
     16 C16        191.3268  -5.4581  49.0635 C.ar           1 RES1               0.0000
     17 O17        192.9300 -10.9930  44.7121 O.2            1 RES1               0.0000
     18 H18        190.2837  -5.8634  43.9389 H              1 RES1               0.0000
     19 H19        191.8643  -5.0908  44.1564 H              1 RES1               0.0000
     20 H20        193.3638  -7.4033  47.2090 H              1 RES1               0.0000
     21 H21        189.7264  -5.4364  46.0959 H              1 RES1               0.0000
     22 H22        194.4321  -9.0599  45.0233 H              1 RES1               0.0000
     23 H23        190.5593 -10.2290  44.6582 H              1 RES1               0.0000
     24 H24        191.5164  -5.7485  41.7978 H              1 RES1               0.0000
     25 H25        192.8543  -6.6600  42.4936 H              1 RES1               0.0000
     26 H26        191.2831  -7.4280  42.2774 H              1 RES1               0.0000
     27 H27        193.1502  -6.4934  49.4785 H              1 RES1               0.0000
     28 H28        189.5283  -4.5368  48.3675 H              1 RES1               0.0000
     29 H29        191.2349  -5.0576  50.0677 H              1 RES1               0.0000
@<TRIPOS>BOND
    1    1    2 1     
    2    1    3 1     
    3    1    4 1     
    4    1    5 1     
    5    2    6 ar    
    6    2    7 ar    
    7    3    8 1     
    8    3    9 2     
    9    4   10 1     
   10    4   11 2     
   11    5   12 1     
   12    5   18 1     
   13    5   19 1     
   14    6   13 ar    
   15    6   20 1     
   16    7   14 ar    
   17    7   21 1     
   18    8   15 1     
   19    8   22 1     
   20   10   15 1     
   21   10   23 1     
   22   12   24 1     
   23   12   25 1     
   24   12   26 1     
   25   13   16 ar    
   26   13   27 1     
   27   14   16 ar    
   28   14   28 1     
   29   15   17 2     
   30   16   29 1     
@<TRIPOS>SUBSTRUCTURE
      1 RES1           1
@<TRIPOS>SET
DONOR_HYDROGENS      STATIC     ATOMS    <user>   **** ""
2 22 23
ATOM$RED        STATIC     ATOMS    COLORGROUP SYSTEM
2 22 23
@<TRIPOS>COMMENT
> <Gold.Version>
2022.3.0

> <Gold.Id.Protein>
unknown|4d1n_clean|pdb

> <Gold.Protein.RotatedTorsions>
[ 6595 6557 6558 6559 ] final  -83.81 input  116.17 | X-H torsion
[ 6682 6637 6638 6639 ] final -138.88 input  120.05 | X-H torsion
[ 8044 8009 8010 8011 ] final  -26.94 input   40.01 | X-H torsion
[ 8121 8086 8087 8088 ] final  138.57 input   93.99 | X-H torsion
[ 8182 8152 8153 8154 ] final  162.37 input   75.44 | X-H torsion
[ 8262 8220 8221 8222 ] final  171.77 input   81.29 | X-H torsion
[ 9562 9520 9519 9517 ] final -102.06 input   60.00 | X-H torsion
[ 8325 8297 8298 8299 ] final  -24.77 input   91.63 | X-H torsion
[ 10204 10169 10170 10171 ] final  138.08 input   34.07 | X-H torsion
[ 7962 7922 7923 7924 ] final  -57.64 input   79.92 | X-H torsion
[ 7893 7875 7876 7877 ] final -148.51 input   91.72 | X-H torsion
[ 7902 7880 7879 7876 ] final  148.55 input   60.02 | X-H torsion
[ 6826 6786 6787 6788 ] final  129.39 input  113.73 | X-H torsion
[ 27193 6320 6319 6318 ] final  -59.22 input    0.00 | X-H torsion
[ 27196 6560 6559 6558 ] final    8.49 input    0.00 | X-H torsion
[ 27199 7878 7877 7876 ] final   -8.85 input    0.00 | X-H torsion
[ 27202 8012 8011 8010 ] final  -47.67 input    0.00 | X-H torsion
[ 27205 8089 8088 8087 ] final  118.97 input   -0.00 | X-H torsion
[ 27208 8155 8154 8153 ] final   24.26 input   -0.00 | X-H torsion
[ 27214 10086 10085 10084 ] final  -62.76 input    0.00 | X-H torsion
[ 27217 10172 10171 10170 ] final  -32.99 input    0.00 | X-H torsion
[ 27220 6367 6366 6365 ] final   16.04 input    0.00 | X-H torsion
[ 27222 7925 7924 7923 ] final   85.46 input   -0.00 | X-H torsion
[ 27224 7790 7789 7788 ] final -147.61 input   -0.00 | X-H torsion

> <Gold.Protein.ActiveResidues>
 ASP403  THR404  LEU406  ILE407  TYR408  ALA410  LYS411  TRP414  TRP426  SER427 
 LYS428  LEU429  GLN430  VAL431  PHE432  ASP433  TYR453  SER462  ALA463  ILE464 

> <Gold.Protein.RotatedAtoms>
  195.6710   -2.0103   37.5437 H   0  0  0  0  0  0  0  0  0  0  0  0  # atno 6595 bound_to 6557
  197.4949   -3.5068   40.2388 H   0  0  0  0  0  0  0  0  0  0  0  0  # atno 6682 bound_to 6637
  196.6748    0.1262   42.1325 H   0  0  0  0  0  0  0  0  0  0  0  0  # atno 6826 bound_to 6786
  197.6328   -0.0387   49.5401 H   0  0  0  0  0  0  0  0  0  0  0  0  # atno 7893 bound_to 7875
  198.4960   -4.4310   50.6918 H   0  0  0  0  0  0  0  0  0  0  0  0  # atno 7902 bound_to 7880
  195.2289   -2.2216   49.0537 H   0  0  0  0  0  0  0  0  0  0  0  0  # atno 7962 bound_to 7922
  192.2846   -3.2855   48.1271 H   0  0  0  0  0  0  0  0  0  0  0  0  # atno 8044 bound_to 8009
  189.5460   -2.2699   46.8961 H   0  0  0  0  0  0  0  0  0  0  0  0  # atno 8121 bound_to 8086
  190.4525   -2.8583   43.2458 H   0  0  0  0  0  0  0  0  0  0  0  0  # atno 8182 bound_to 8152
  187.6252   -2.0879   40.8997 H   0  0  0  0  0  0  0  0  0  0  0  0  # atno 8262 bound_to 8220
  186.7250   -2.4018   36.9108 H   0  0  0  0  0  0  0  0  0  0  0  0  # atno 8325 bound_to 8297
  186.3843   -5.4535   46.9691 H   0  0  0  0  0  0  0  0  0  0  0  0  # atno 9562 bound_to 9520
  188.6019    1.4093   43.9983 H   0  0  0  0  0  0  0  0  0  0  0  0  # atno 10204 bound_to 10169
  195.6357   -4.3299   35.9886 LP  0  0  0  0  0  0  0  0  0  0  0  0  # atno 27193 bound_to 6320
  195.4212   -5.5242   37.2246 LP  0  0  0  0  0  0  0  0  0  0  0  0  # atno 27194 bound_to 6320
  196.2620   -3.6539   37.5356 LP  0  0  0  0  0  0  0  0  0  0  0  0  # atno 27195 bound_to 6557
  195.7595   -1.3961   41.5022 LP  0  0  0  0  0  0  0  0  0  0  0  0  # atno 27196 bound_to 6560
  197.4649   -1.0953   41.5322 LP  0  0  0  0  0  0  0  0  0  0  0  0  # atno 27197 bound_to 6560
  197.7210   -2.3577   38.9374 LP  0  0  0  0  0  0  0  0  0  0  0  0  # atno 27198 bound_to 6637
  196.2199   -4.0016   47.6723 LP  0  0  0  0  0  0  0  0  0  0  0  0  # atno 27199 bound_to 7878
  194.7667   -4.3682   48.5405 LP  0  0  0  0  0  0  0  0  0  0  0  0  # atno 27200 bound_to 7878
  193.3483   -1.9544   48.5154 LP  0  0  0  0  0  0  0  0  0  0  0  0  # atno 27201 bound_to 8009
  192.7715   -2.7101   44.9453 LP  0  0  0  0  0  0  0  0  0  0  0  0  # atno 27202 bound_to 8012
  191.7183   -4.0509   45.2503 LP  0  0  0  0  0  0  0  0  0  0  0  0  # atno 27203 bound_to 8012
  190.7325   -1.8152   45.6931 LP  0  0  0  0  0  0  0  0  0  0  0  0  # atno 27204 bound_to 8086
  189.2053   -0.3852   43.3225 LP  0  0  0  0  0  0  0  0  0  0  0  0  # atno 27205 bound_to 8089
  187.6770   -1.0370   43.8117 LP  0  0  0  0  0  0  0  0  0  0  0  0  # atno 27206 bound_to 8089
  188.8328   -3.3814   42.8371 LP  0  0  0  0  0  0  0  0  0  0  0  0  # atno 27207 bound_to 8152
  189.1604   -4.6721   40.5848 LP  0  0  0  0  0  0  0  0  0  0  0  0  # atno 27208 bound_to 8155
  188.3171   -4.2588   39.1295 LP  0  0  0  0  0  0  0  0  0  0  0  0  # atno 27209 bound_to 8155
  188.6912   -1.5158   39.6418 LP  0  0  0  0  0  0  0  0  0  0  0  0  # atno 27210 bound_to 8220
  185.5728   -5.8593   48.3201 LP  0  0  0  0  0  0  0  0  0  0  0  0  # atno 27211 bound_to 9520
  186.2870   -4.3956   48.2019 LP  0  0  0  0  0  0  0  0  0  0  0  0  # atno 27212 bound_to 9520
  188.1866   -3.2488   37.3668 LP  0  0  0  0  0  0  0  0  0  0  0  0  # atno 27213 bound_to 8297
  188.4872   -1.1967   47.9919 LP  0  0  0  0  0  0  0  0  0  0  0  0  # atno 27214 bound_to 10086
  186.8625   -1.1367   47.3948 LP  0  0  0  0  0  0  0  0  0  0  0  0  # atno 27215 bound_to 10086
  186.9917    1.0611   43.4085 LP  0  0  0  0  0  0  0  0  0  0  0  0  # atno 27216 bound_to 10169
  188.4691    0.1166   41.0917 LP  0  0  0  0  0  0  0  0  0  0  0  0  # atno 27217 bound_to 10172
  186.9372    0.0823   40.2841 LP  0  0  0  0  0  0  0  0  0  0  0  0  # atno 27218 bound_to 10172
  195.3529   -2.0474   50.7905 LP  0  0  0  0  0  0  0  0  0  0  0  0  # atno 27219 bound_to 7922
  198.2032   -5.5953   38.7238 LP  0  0  0  0  0  0  0  0  0  0  0  0  # atno 27220 bound_to 6367
  198.4925   -4.0562   37.9838 LP  0  0  0  0  0  0  0  0  0  0  0  0  # atno 27221 bound_to 6367
  192.2766   -0.2890   49.9728 LP  0  0  0  0  0  0  0  0  0  0  0  0  # atno 27222 bound_to 7925
  190.9471   -1.3840   50.1548 LP  0  0  0  0  0  0  0  0  0  0  0  0  # atno 27223 bound_to 7925
  195.6808   -0.4819   47.7833 LP  0  0  0  0  0  0  0  0  0  0  0  0  # atno 27224 bound_to 7790
  196.3483    1.0977   47.5401 LP  0  0  0  0  0  0  0  0  0  0  0  0  # atno 27225 bound_to 7790
  196.5504   -0.7953   50.6765 LP  0  0  0  0  0  0  0  0  0  0  0  0  # atno 27226 bound_to 7875
  197.1187   -3.5801   50.8598 LP  0  0  0  0  0  0  0  0  0  0  0  0  # atno 27227 bound_to 7880
  198.5446   -2.9297   51.3188 LP  0  0  0  0  0  0  0  0  0  0  0  0  # atno 27228 bound_to 7880

> <Gold.Score>
     Fitness  S(hb_ext) S(vdw_ext)  S(hb_int)    S(int)      intcor
     30.26       6.45      18.33       0.00      -1.39      -0.76

> <Gold.Goldscore.Fitness>
30.2559

> <Gold.Goldscore.Internal.Vdw>
-1.5525

> <Gold.Goldscore.Internal.Torsion>
-0.5982

> <Gold.Goldscore.External.Vdw>
18.3278

> <Gold.Goldscore.Internal.HBond>
0.0000

> <Gold.Goldscore.External.HBond>
6.4487

> <Gold.Goldscore.Internal.Correction>
-0.7573

> <Gold.Goldscore.Hbonds>
donor molecule, donor type, donor heavy atom, donor atom, acceptor molecule, acceptor atom, score
      P1  H  6794  6837       L1     9  1.00
      P1  H  8093  8127       L1    11  0.22

> <Gold.Goldscore.Internal.Vdw.Weighted>
-1.5525

> <Gold.Goldscore.Internal.Torsion.Weighted>
-0.5982

> <Gold.Goldscore.External.Vdw.Weighted>
25.2007

> <Gold.Goldscore.Internal.HBond.Weighted>
0.0000

> <Gold.Goldscore.External.HBond.Weighted>
6.4487

> <Gold.Goldscore.Internal.Correction.Weighted>
-0.7573

> <Gold.Rescore>
     Score     S(PLP)   S(hbond)     S(cho)   S(metal)  DE(clash)   DE(tors)     intcor
     31.98     -28.61       1.89       0.00       0.00       1.63       0.33       ----

> <Gold.PLP.Fitness>
31.9837

> <Gold.PLP.PLP>
-28.6080

> <Gold.PLP.part.hbond>
-1.9360

> <Gold.PLP.part.metal>
0.0000

> <Gold.PLP.part.buried>
-4.5851

> <Gold.PLP.part.nonpolar>
-22.9075

> <Gold.PLP.part.repulsive>
0.1434

> <Gold.PLP.ligand.clash>
1.6280

> <Gold.PLP.ligand.torsion>
0.3301

> <Gold.PLP.Chemscore.Hbond>
1.8880

> <Gold.PLP.Chemscore.CHOScore>
0.0000

> <Gold.PLP.Chemscore.Metal>
0.0000

> <Gold.Chemscore.Hbonds>
donor molecule, donor type, donor heavy atom, donor atom, acceptor molecule, acceptor atom, score
      P1  H  6794  6837       L1     9  0.62
      P1  H  8093  8127       L1    11  0.77

> <Gold.PLP.Chemscore.Internal.Correction>
   9.000000E+99

