#       Name:                CT1002167954
#       Creating user name   hitesit
#       Creation time:       Sun Apr 16 22:58:00 2023


#       File generated by GOLD software.
#

@<TRIPOS>MOLECULE
CT1002167954|ligand_prepared|mol2|1|dock1
    29    30     1
SMALL
NO_CHARGES


@<TRIPOS>ATOM
      1 C1         190.4248  -6.1198  49.1006 C.3            1 RES1               0.0000
      2 C2         189.7494  -4.9466  49.8396 C.ar           1 RES1               0.0000
      3 C3         189.9328  -6.0574  47.6576 C.2            1 RES1               0.0000
      4 C4         191.9275  -5.9128  49.2551 C.2            1 RES1               0.0000
      5 C5         190.0720  -7.5095  49.6802 C.3            1 RES1               0.0000
      6 C6         189.6619  -3.6912  49.2455 C.ar           1 RES1               0.0000
      7 C7         189.2077  -5.1048  51.1125 C.ar           1 RES1               0.0000
      8 N8         190.8086  -5.6158  46.7100 N.am           1 RES1               0.0000
      9 O9         188.7818  -6.3534  47.3616 O.2            1 RES1               0.0000
     10 N10        192.6583  -5.6464  48.1269 N.am           1 RES1               0.0000
     11 O11        192.4827  -5.9615  50.3458 O.2            1 RES1               0.0000
     12 C12        190.5426  -8.6706  48.8186 C.3            1 RES1               0.0000
     13 C13        189.0524  -2.6329  49.8989 C.ar           1 RES1               0.0000
     14 C14        188.5988  -4.0451  51.7642 C.ar           1 RES1               0.0000
     15 C15        192.1624  -5.4581  46.8656 C.2            1 RES1               0.0000
     16 C16        188.5201  -2.8092  51.1584 C.ar           1 RES1               0.0000
     17 O17        192.8772  -5.1672  45.9109 O.2            1 RES1               0.0000
     18 H18        190.5241  -7.6022  50.6753 H              1 RES1               0.0000
     19 H19        188.9835  -7.5765  49.7989 H              1 RES1               0.0000
     20 H20        190.0773  -3.5328  48.2559 H              1 RES1               0.0000
     21 H21        189.2590  -6.0679  51.6089 H              1 RES1               0.0000
     22 H22        190.4211  -5.3809  45.8017 H              1 RES1               0.0000
     23 H23        193.6653  -5.5827  48.2376 H              1 RES1               0.0000
     24 H24        190.2695  -9.6218  49.2706 H              1 RES1               0.0000
     25 H25        190.0924  -8.6240  47.8291 H              1 RES1               0.0000
     26 H26        191.6240  -8.6496  48.7003 H              1 RES1               0.0000
     27 H27        188.9943  -1.6619  49.4183 H              1 RES1               0.0000
     28 H28        188.1818  -4.1883  52.7556 H              1 RES1               0.0000
     29 H29        188.0424  -1.9802  51.6698 H              1 RES1               0.0000
@<TRIPOS>BOND
    1    1    2 1     
    2    1    3 1     
    3    1    4 1     
    4    1    5 1     
    5    2    6 ar    
    6    2    7 ar    
    7    3    8 1     
    8    3    9 2     
    9    4   10 1     
   10    4   11 2     
   11    5   12 1     
   12    5   18 1     
   13    5   19 1     
   14    6   13 ar    
   15    6   20 1     
   16    7   14 ar    
   17    7   21 1     
   18    8   15 1     
   19    8   22 1     
   20   10   15 1     
   21   10   23 1     
   22   12   24 1     
   23   12   25 1     
   24   12   26 1     
   25   13   16 ar    
   26   13   27 1     
   27   14   16 ar    
   28   14   28 1     
   29   15   17 2     
   30   16   29 1     
@<TRIPOS>SUBSTRUCTURE
      1 RES1           1
@<TRIPOS>SET
DONOR_HYDROGENS      STATIC     ATOMS    <user>   **** ""
2 22 23
ATOM$RED        STATIC     ATOMS    COLORGROUP SYSTEM
2 22 23
@<TRIPOS>COMMENT
> <Gold.Version>
2022.3.0

> <Gold.Id.Protein>
unknown|4d1n_clean|pdb

> <Gold.Protein.RotatedTorsions>
[ 6595 6557 6558 6559 ] final -119.93 input  116.17 | X-H torsion
[ 6682 6637 6638 6639 ] final   73.33 input  120.05 | X-H torsion
[ 8044 8009 8010 8011 ] final -153.92 input   40.01 | X-H torsion
[ 8121 8086 8087 8088 ] final  -28.30 input   93.99 | X-H torsion
[ 8182 8152 8153 8154 ] final   70.49 input   75.44 | X-H torsion
[ 8262 8220 8221 8222 ] final  112.18 input   81.29 | X-H torsion
[ 9562 9520 9519 9517 ] final  -70.14 input   60.00 | X-H torsion
[ 8325 8297 8298 8299 ] final -157.69 input   91.63 | X-H torsion
[ 10204 10169 10170 10171 ] final   10.43 input   34.07 | X-H torsion
[ 7962 7922 7923 7924 ] final -148.82 input   79.92 | X-H torsion
[ 7893 7875 7876 7877 ] final   86.69 input   91.72 | X-H torsion
[ 7902 7880 7879 7876 ] final -148.59 input   60.02 | X-H torsion
[ 6826 6786 6787 6788 ] final  163.46 input  113.73 | X-H torsion
[ 27193 6320 6319 6318 ] final   50.93 input    0.00 | X-H torsion
[ 27196 6560 6559 6558 ] final  169.84 input    0.00 | X-H torsion
[ 27199 7878 7877 7876 ] final  -52.30 input    0.00 | X-H torsion
[ 27202 8012 8011 8010 ] final  141.28 input    0.00 | X-H torsion
[ 27205 8089 8088 8087 ] final   25.04 input   -0.00 | X-H torsion
[ 27208 8155 8154 8153 ] final -155.60 input   -0.00 | X-H torsion
[ 27214 10086 10085 10084 ] final  -70.27 input    0.00 | X-H torsion
[ 27217 10172 10171 10170 ] final    4.69 input    0.00 | X-H torsion
[ 27220 6367 6366 6365 ] final  -82.42 input    0.00 | X-H torsion
[ 27222 7925 7924 7923 ] final  -71.57 input   -0.00 | X-H torsion
[ 27224 7790 7789 7788 ] final   55.52 input   -0.00 | X-H torsion

> <Gold.Protein.ActiveResidues>
 ASP403  THR404  LEU406  ILE407  TYR408  ALA410  LYS411  TRP414  TRP426  SER427 
 LYS428  LEU429  GLN430  VAL431  PHE432  ASP433  TYR453  SER462  ALA463  ILE464 

> <Gold.Protein.RotatedAtoms>
  195.2473   -2.3424   37.4460 H   0  0  0  0  0  0  0  0  0  0  0  0  # atno 6595 bound_to 6557
  197.9661   -2.7477   38.7796 H   0  0  0  0  0  0  0  0  0  0  0  0  # atno 6682 bound_to 6637
  196.1985    0.2687   42.2718 H   0  0  0  0  0  0  0  0  0  0  0  0  # atno 6826 bound_to 6786
  197.3427   -0.8634   50.8165 H   0  0  0  0  0  0  0  0  0  0  0  0  # atno 7893 bound_to 7875
  198.9835   -3.6733   51.0691 H   0  0  0  0  0  0  0  0  0  0  0  0  # atno 7902 bound_to 7880
  195.6642   -2.9368   50.0080 H   0  0  0  0  0  0  0  0  0  0  0  0  # atno 7962 bound_to 7922
  192.7133   -2.0137   48.9650 H   0  0  0  0  0  0  0  0  0  0  0  0  # atno 8044 bound_to 8009
  190.6168   -1.6606   45.6325 H   0  0  0  0  0  0  0  0  0  0  0  0  # atno 8121 bound_to 8086
  189.9323   -3.8802   42.6789 H   0  0  0  0  0  0  0  0  0  0  0  0  # atno 8182 bound_to 8152
  187.5716   -1.2583   40.6289 H   0  0  0  0  0  0  0  0  0  0  0  0  # atno 8262 bound_to 8220
  188.2212   -2.5704   37.5334 H   0  0  0  0  0  0  0  0  0  0  0  0  # atno 8325 bound_to 8297
  186.5549   -4.9770   47.0631 H   0  0  0  0  0  0  0  0  0  0  0  0  # atno 9562 bound_to 9520
  187.5424    0.6018   43.1214 H   0  0  0  0  0  0  0  0  0  0  0  0  # atno 10204 bound_to 10169
  194.6941   -5.1527   36.6619 LP  0  0  0  0  0  0  0  0  0  0  0  0  # atno 27193 bound_to 6320
  196.3627   -4.7015   36.5513 LP  0  0  0  0  0  0  0  0  0  0  0  0  # atno 27194 bound_to 6320
  196.6770   -3.3286   37.6313 LP  0  0  0  0  0  0  0  0  0  0  0  0  # atno 27195 bound_to 6557
  197.4531   -1.3084   41.7144 LP  0  0  0  0  0  0  0  0  0  0  0  0  # atno 27196 bound_to 6560
  195.7713   -1.1830   41.3199 LP  0  0  0  0  0  0  0  0  0  0  0  0  # atno 27197 bound_to 6560
  197.2658   -3.0910   40.3471 LP  0  0  0  0  0  0  0  0  0  0  0  0  # atno 27198 bound_to 6637
  195.7099   -3.7106   47.4149 LP  0  0  0  0  0  0  0  0  0  0  0  0  # atno 27199 bound_to 7878
  195.2766   -4.6592   48.7979 LP  0  0  0  0  0  0  0  0  0  0  0  0  # atno 27200 bound_to 7878
  192.9296   -3.1965   47.6970 LP  0  0  0  0  0  0  0  0  0  0  0  0  # atno 27201 bound_to 8009
  191.6531   -4.0114   45.1386 LP  0  0  0  0  0  0  0  0  0  0  0  0  # atno 27202 bound_to 8012
  192.8367   -2.7496   45.0569 LP  0  0  0  0  0  0  0  0  0  0  0  0  # atno 27203 bound_to 8012
  189.6939   -2.4061   46.9187 LP  0  0  0  0  0  0  0  0  0  0  0  0  # atno 27204 bound_to 8086
  188.5975   -0.6015   44.4118 LP  0  0  0  0  0  0  0  0  0  0  0  0  # atno 27205 bound_to 8089
  188.2847   -0.8207   42.7224 LP  0  0  0  0  0  0  0  0  0  0  0  0  # atno 27206 bound_to 8089
  189.3356   -2.3937   43.3851 LP  0  0  0  0  0  0  0  0  0  0  0  0  # atno 27207 bound_to 8152
  188.3189   -4.2586   39.1285 LP  0  0  0  0  0  0  0  0  0  0  0  0  # atno 27208 bound_to 8155
  189.1586   -4.6724   40.5858 LP  0  0  0  0  0  0  0  0  0  0  0  0  # atno 27209 bound_to 8155
  188.7438   -2.3319   39.9082 LP  0  0  0  0  0  0  0  0  0  0  0  0  # atno 27210 bound_to 8220
  185.6806   -6.0888   47.8679 LP  0  0  0  0  0  0  0  0  0  0  0  0  # atno 27211 bound_to 9520
  186.0074   -4.6460   48.5594 LP  0  0  0  0  0  0  0  0  0  0  0  0  # atno 27212 bound_to 9520
  186.7369   -3.0855   36.7635 LP  0  0  0  0  0  0  0  0  0  0  0  0  # atno 27213 bound_to 8297
  188.5194   -1.1840   47.8841 LP  0  0  0  0  0  0  0  0  0  0  0  0  # atno 27214 bound_to 10086
  186.8302   -1.1494   47.5027 LP  0  0  0  0  0  0  0  0  0  0  0  0  # atno 27215 bound_to 10086
  188.0185    1.8437   44.2584 LP  0  0  0  0  0  0  0  0  0  0  0  0  # atno 27216 bound_to 10169
  188.0683    0.0166   41.4688 LP  0  0  0  0  0  0  0  0  0  0  0  0  # atno 27217 bound_to 10172
  187.3379    0.1824   39.9070 LP  0  0  0  0  0  0  0  0  0  0  0  0  # atno 27218 bound_to 10172
  194.9311   -1.3541   49.8656 LP  0  0  0  0  0  0  0  0  0  0  0  0  # atno 27219 bound_to 7922
  197.5246   -4.5815   38.2418 LP  0  0  0  0  0  0  0  0  0  0  0  0  # atno 27220 bound_to 6367
  199.1711   -5.0701   38.4658 LP  0  0  0  0  0  0  0  0  0  0  0  0  # atno 27221 bound_to 6367
  191.1174   -1.4330   50.4507 LP  0  0  0  0  0  0  0  0  0  0  0  0  # atno 27222 bound_to 7925
  192.1063   -0.2400   49.6769 LP  0  0  0  0  0  0  0  0  0  0  0  0  # atno 27223 bound_to 7925
  196.6089    0.8948   47.4330 LP  0  0  0  0  0  0  0  0  0  0  0  0  # atno 27224 bound_to 7790
  195.4202   -0.2790   47.8904 LP  0  0  0  0  0  0  0  0  0  0  0  0  # atno 27225 bound_to 7790
  196.8393    0.0259   49.4054 LP  0  0  0  0  0  0  0  0  0  0  0  0  # atno 27226 bound_to 7875
  197.6037   -4.3919   50.5907 LP  0  0  0  0  0  0  0  0  0  0  0  0  # atno 27227 bound_to 7880
  197.5688   -2.8806   51.2081 LP  0  0  0  0  0  0  0  0  0  0  0  0  # atno 27228 bound_to 7880

> <Gold.Score>
     Fitness  S(hb_ext) S(vdw_ext)  S(hb_int)    S(int)      intcor
     30.31       0.12      22.04       0.00      -0.11      -0.78

> <Gold.Goldscore.Fitness>
30.3143

> <Gold.Goldscore.Internal.Vdw>
-0.3738

> <Gold.Goldscore.Internal.Torsion>
-0.5205

> <Gold.Goldscore.External.Vdw>
22.0425

> <Gold.Goldscore.Internal.HBond>
0.0000

> <Gold.Goldscore.External.HBond>
0.1182

> <Gold.Goldscore.Internal.Correction>
-0.7819

> <Gold.Goldscore.Hbonds>
donor molecule, donor type, donor heavy atom, donor atom, acceptor molecule, acceptor atom, score
      P1  H  8093  8128       L1     9  0.06

> <Gold.Goldscore.Internal.Vdw.Weighted>
-0.3738

> <Gold.Goldscore.Internal.Torsion.Weighted>
-0.5205

> <Gold.Goldscore.External.Vdw.Weighted>
30.3085

> <Gold.Goldscore.Internal.HBond.Weighted>
0.0000

> <Gold.Goldscore.External.HBond.Weighted>
0.1182

> <Gold.Goldscore.Internal.Correction.Weighted>
-0.7819

> <Gold.Rescore>
     Score     S(PLP)   S(hbond)     S(cho)   S(metal)  DE(clash)   DE(tors)     intcor
     35.61     -34.79       1.03       0.00       0.00       2.01       0.14       ----

> <Gold.PLP.Fitness>
35.6147

> <Gold.PLP.PLP>
-34.7937

> <Gold.PLP.part.hbond>
-3.0000

> <Gold.PLP.part.metal>
0.0000

> <Gold.PLP.part.buried>
-5.3839

> <Gold.PLP.part.nonpolar>
-27.1424

> <Gold.PLP.part.repulsive>
0.2652

> <Gold.PLP.ligand.clash>
2.0097

> <Gold.PLP.ligand.torsion>
0.1355

> <Gold.PLP.Chemscore.Hbond>
1.0339

> <Gold.PLP.Chemscore.CHOScore>
0.0000

> <Gold.PLP.Chemscore.Metal>
0.0000

> <Gold.Chemscore.Hbonds>
donor molecule, donor type, donor heavy atom, donor atom, acceptor molecule, acceptor atom, score
      P1  H  6794  6837       L1    17  0.16
      P1  H  8093  8128       L1     9  0.58

> <Gold.PLP.Chemscore.Internal.Correction>
   9.000000E+99

