#       Name:                CT1002167954
#       Creating user name   hitesit
#       Creation time:       Sun Apr 16 22:58:03 2023


#       File generated by GOLD software.
#

@<TRIPOS>MOLECULE
CT1002167954|ligand_prepared|mol2|1|dock6
    29    30     1
SMALL
NO_CHARGES


@<TRIPOS>ATOM
      1 C1         190.8293  -6.6814  48.5598 C.3            1 RES1               0.0000
      2 C2         190.0446  -5.4381  49.0256 C.ar           1 RES1               0.0000
      3 C3         190.3601  -6.9763  47.1381 C.2            1 RES1               0.0000
      4 C4         192.3062  -6.3178  48.6646 C.2            1 RES1               0.0000
      5 C5         190.5836  -7.9370  49.4285 C.3            1 RES1               0.0000
      6 C6         189.8615  -4.3546  48.1716 C.ar           1 RES1               0.0000
      7 C7         189.4966  -5.3611  50.3033 C.ar           1 RES1               0.0000
      8 N8         191.2129  -6.6777  46.1166 N.am           1 RES1               0.0000
      9 O9         189.2435  -7.4272  46.9143 O.2            1 RES1               0.0000
     10 N10        193.0325  -6.2411  47.5052 N.am           1 RES1               0.0000
     11 O11        192.8437  -6.0806  49.7394 O.2            1 RES1               0.0000
     12 C12        191.1516  -9.2155  48.8327 C.3            1 RES1               0.0000
     13 C13        189.1537  -3.2360  48.5789 C.ar           1 RES1               0.0000
     14 C14        188.7893  -4.2413  50.7087 C.ar           1 RES1               0.0000
     15 C15        192.5456  -6.3745  46.2334 C.2            1 RES1               0.0000
     16 C16        188.6168  -3.1787  49.8474 C.ar           1 RES1               0.0000
     17 O17        193.2509  -6.2378  45.2379 O.2            1 RES1               0.0000
     18 H18        191.0341  -7.7770  50.4158 H              1 RES1               0.0000
     19 H19        189.5030  -8.0630  49.5694 H              1 RES1               0.0000
     20 H20        190.2788  -4.3806  47.1705 H              1 RES1               0.0000
     21 H21        189.6206  -6.1847  50.9982 H              1 RES1               0.0000
     22 H22        190.8237  -6.6799  45.1791 H              1 RES1               0.0000
     23 H23        194.0285  -6.0688  47.5988 H              1 RES1               0.0000
     24 H24        190.9516 -10.0656  49.4817 H              1 RES1               0.0000
     25 H25        190.7068  -9.4191  47.8609 H              1 RES1               0.0000
     26 H26        192.2288  -9.1349  48.7022 H              1 RES1               0.0000
     27 H27        189.0219  -2.4018  47.8978 H              1 RES1               0.0000
     28 H28        188.3690  -4.2003  51.7082 H              1 RES1               0.0000
     29 H29        188.0620  -2.3024  50.1662 H              1 RES1               0.0000
@<TRIPOS>BOND
    1    1    2 1     
    2    1    3 1     
    3    1    4 1     
    4    1    5 1     
    5    2    6 ar    
    6    2    7 ar    
    7    3    8 1     
    8    3    9 2     
    9    4   10 1     
   10    4   11 2     
   11    5   12 1     
   12    5   18 1     
   13    5   19 1     
   14    6   13 ar    
   15    6   20 1     
   16    7   14 ar    
   17    7   21 1     
   18    8   15 1     
   19    8   22 1     
   20   10   15 1     
   21   10   23 1     
   22   12   24 1     
   23   12   25 1     
   24   12   26 1     
   25   13   16 ar    
   26   13   27 1     
   27   14   16 ar    
   28   14   28 1     
   29   15   17 2     
   30   16   29 1     
@<TRIPOS>SUBSTRUCTURE
      1 RES1           1
@<TRIPOS>SET
DONOR_HYDROGENS      STATIC     ATOMS    <user>   **** ""
2 22 23
ATOM$RED        STATIC     ATOMS    COLORGROUP SYSTEM
2 22 23
@<TRIPOS>COMMENT
> <Gold.Version>
2022.3.0

> <Gold.Id.Protein>
unknown|4d1n_clean|pdb

> <Gold.Protein.RotatedTorsions>
[ 6595 6557 6558 6559 ] final  168.30 input  116.17 | X-H torsion
[ 6682 6637 6638 6639 ] final  128.85 input  120.05 | X-H torsion
[ 8044 8009 8010 8011 ] final  -14.53 input   40.01 | X-H torsion
[ 8121 8086 8087 8088 ] final  -40.08 input   93.99 | X-H torsion
[ 8182 8152 8153 8154 ] final -144.69 input   75.44 | X-H torsion
[ 8262 8220 8221 8222 ] final   14.85 input   81.29 | X-H torsion
[ 9562 9520 9519 9517 ] final    7.33 input   60.00 | X-H torsion
[ 8325 8297 8298 8299 ] final -158.56 input   91.63 | X-H torsion
[ 10204 10169 10170 10171 ] final   87.69 input   34.07 | X-H torsion
[ 7962 7922 7923 7924 ] final  160.49 input   79.92 | X-H torsion
[ 7893 7875 7876 7877 ] final   91.87 input   91.72 | X-H torsion
[ 7902 7880 7879 7876 ] final  -21.55 input   60.02 | X-H torsion
[ 6826 6786 6787 6788 ] final -141.19 input  113.73 | X-H torsion
[ 27193 6320 6319 6318 ] final -159.13 input    0.00 | X-H torsion
[ 27196 6560 6559 6558 ] final   75.76 input    0.00 | X-H torsion
[ 27199 7878 7877 7876 ] final  119.76 input    0.00 | X-H torsion
[ 27202 8012 8011 8010 ] final   72.44 input    0.00 | X-H torsion
[ 27205 8089 8088 8087 ] final   24.43 input   -0.00 | X-H torsion
[ 27208 8155 8154 8153 ] final   26.85 input   -0.00 | X-H torsion
[ 27214 10086 10085 10084 ] final  138.26 input    0.00 | X-H torsion
[ 27217 10172 10171 10170 ] final -145.81 input    0.00 | X-H torsion
[ 27220 6367 6366 6365 ] final -107.07 input    0.00 | X-H torsion
[ 27222 7925 7924 7923 ] final  160.51 input   -0.00 | X-H torsion
[ 27224 7790 7789 7788 ] final -123.35 input   -0.00 | X-H torsion

> <Gold.Protein.ActiveResidues>
 ASP403  THR404  LEU406  ILE407  TYR408  ALA410  LYS411  TRP414  TRP426  SER427 
 LYS428  LEU429  GLN430  VAL431  PHE432  ASP433  TYR453  SER462  ALA463  ILE464 

> <Gold.Protein.RotatedAtoms>
  195.2845   -3.3742   37.3827 H   0  0  0  0  0  0  0  0  0  0  0  0  # atno 6595 bound_to 6557
  198.0760   -3.5075   39.0939 H   0  0  0  0  0  0  0  0  0  0  0  0  # atno 6682 bound_to 6637
  195.8225    0.9820   42.4130 H   0  0  0  0  0  0  0  0  0  0  0  0  # atno 6826 bound_to 6786
  197.4171   -0.8496   50.7943 H   0  0  0  0  0  0  0  0  0  0  0  0  # atno 7893 bound_to 7875
  197.4784   -2.9410   51.1687 H   0  0  0  0  0  0  0  0  0  0  0  0  # atno 7902 bound_to 7880
  195.5615   -2.5652   50.6639 H   0  0  0  0  0  0  0  0  0  0  0  0  # atno 7962 bound_to 7922
  192.4130   -3.3209   47.9900 H   0  0  0  0  0  0  0  0  0  0  0  0  # atno 8044 bound_to 8009
  190.7309   -1.8003   45.6589 H   0  0  0  0  0  0  0  0  0  0  0  0  # atno 8121 bound_to 8086
  189.8628   -2.3613   43.4321 H   0  0  0  0  0  0  0  0  0  0  0  0  # atno 8182 bound_to 8152
  188.5145   -1.2208   39.7041 H   0  0  0  0  0  0  0  0  0  0  0  0  # atno 8262 bound_to 8220
  188.2260   -2.5829   37.5323 H   0  0  0  0  0  0  0  0  0  0  0  0  # atno 8325 bound_to 8297
  186.3669   -4.3725   48.0489 H   0  0  0  0  0  0  0  0  0  0  0  0  # atno 9562 bound_to 9520
  188.5545    0.8298   43.5143 H   0  0  0  0  0  0  0  0  0  0  0  0  # atno 10204 bound_to 10169
  196.3466   -5.0090   36.8784 LP  0  0  0  0  0  0  0  0  0  0  0  0  # atno 27193 bound_to 6320
  194.7103   -4.8451   36.3348 LP  0  0  0  0  0  0  0  0  0  0  0  0  # atno 27194 bound_to 6320
  196.6405   -2.3179   37.6933 LP  0  0  0  0  0  0  0  0  0  0  0  0  # atno 27195 bound_to 6557
  196.3778   -1.8958   42.0392 LP  0  0  0  0  0  0  0  0  0  0  0  0  # atno 27196 bound_to 6560
  196.8465   -0.5957   40.9952 LP  0  0  0  0  0  0  0  0  0  0  0  0  # atno 27197 bound_to 6560
  197.1596   -2.3570   40.0434 LP  0  0  0  0  0  0  0  0  0  0  0  0  # atno 27198 bound_to 6637
  195.3930   -4.6870   48.8049 LP  0  0  0  0  0  0  0  0  0  0  0  0  # atno 27199 bound_to 7878
  195.5935   -3.6828   47.4079 LP  0  0  0  0  0  0  0  0  0  0  0  0  # atno 27200 bound_to 7878
  193.2229   -1.9198   48.6493 LP  0  0  0  0  0  0  0  0  0  0  0  0  # atno 27201 bound_to 8009
  192.3788   -3.8907   45.7847 LP  0  0  0  0  0  0  0  0  0  0  0  0  # atno 27202 bound_to 8012
  192.1110   -2.8703   44.4109 LP  0  0  0  0  0  0  0  0  0  0  0  0  # atno 27203 bound_to 8012
  189.5833   -2.2707   46.8931 LP  0  0  0  0  0  0  0  0  0  0  0  0  # atno 27204 bound_to 8086
  188.5891   -0.6051   44.4138 LP  0  0  0  0  0  0  0  0  0  0  0  0  # atno 27205 bound_to 8089
  188.2931   -0.8171   42.7204 LP  0  0  0  0  0  0  0  0  0  0  0  0  # atno 27206 bound_to 8089
  189.4028   -3.8619   42.6570 LP  0  0  0  0  0  0  0  0  0  0  0  0  # atno 27207 bound_to 8152
  189.1258   -4.6768   40.6025 LP  0  0  0  0  0  0  0  0  0  0  0  0  # atno 27208 bound_to 8155
  188.3517   -4.2541   39.1118 LP  0  0  0  0  0  0  0  0  0  0  0  0  # atno 27209 bound_to 8155
  187.8163   -2.3688   40.8180 LP  0  0  0  0  0  0  0  0  0  0  0  0  # atno 27210 bound_to 8220
  186.3065   -5.6077   46.9911 LP  0  0  0  0  0  0  0  0  0  0  0  0  # atno 27211 bound_to 9520
  185.5708   -5.7360   48.4433 LP  0  0  0  0  0  0  0  0  0  0  0  0  # atno 27212 bound_to 9520
  186.7323   -3.0734   36.7645 LP  0  0  0  0  0  0  0  0  0  0  0  0  # atno 27213 bound_to 8297
  187.0242   -1.1045   47.1253 LP  0  0  0  0  0  0  0  0  0  0  0  0  # atno 27214 bound_to 10086
  188.3255   -1.2288   48.2615 LP  0  0  0  0  0  0  0  0  0  0  0  0  # atno 27215 bound_to 10086
  187.0376    1.6227   43.8777 LP  0  0  0  0  0  0  0  0  0  0  0  0  # atno 27216 bound_to 10169
  187.7695    0.2383   39.8357 LP  0  0  0  0  0  0  0  0  0  0  0  0  # atno 27217 bound_to 10172
  187.6368   -0.0393   41.5402 LP  0  0  0  0  0  0  0  0  0  0  0  0  # atno 27218 bound_to 10172
  195.0306   -1.7143   49.2298 LP  0  0  0  0  0  0  0  0  0  0  0  0  # atno 27219 bound_to 7922
  197.7117   -4.2944   38.1030 LP  0  0  0  0  0  0  0  0  0  0  0  0  # atno 27220 bound_to 6367
  198.9840   -5.3571   38.6047 LP  0  0  0  0  0  0  0  0  0  0  0  0  # atno 27221 bound_to 6367
  191.4923   -0.4666   49.2900 LP  0  0  0  0  0  0  0  0  0  0  0  0  # atno 27222 bound_to 7925
  191.7314   -1.2064   50.8377 LP  0  0  0  0  0  0  0  0  0  0  0  0  # atno 27223 bound_to 7925
  195.4096   -0.2663   47.8949 LP  0  0  0  0  0  0  0  0  0  0  0  0  # atno 27224 bound_to 7790
  196.6195    0.8821   47.4286 LP  0  0  0  0  0  0  0  0  0  0  0  0  # atno 27225 bound_to 7790
  196.7653    0.0122   49.4275 LP  0  0  0  0  0  0  0  0  0  0  0  0  # atno 27226 bound_to 7875
  198.9799   -3.5671   51.1148 LP  0  0  0  0  0  0  0  0  0  0  0  0  # atno 27227 bound_to 7880
  197.7077   -4.4425   50.5838 LP  0  0  0  0  0  0  0  0  0  0  0  0  # atno 27228 bound_to 7880

> <Gold.Score>
     Fitness  S(hb_ext) S(vdw_ext)  S(hb_int)    S(int)      intcor
     30.61       2.09      20.85       0.00      -0.16      -0.76

> <Gold.Goldscore.Fitness>
30.6056

> <Gold.Goldscore.Internal.Vdw>
-0.3715

> <Gold.Goldscore.Internal.Torsion>
-0.5412

> <Gold.Goldscore.External.Vdw>
20.8510

> <Gold.Goldscore.Internal.HBond>
0.0000

> <Gold.Goldscore.External.HBond>
2.0908

> <Gold.Goldscore.Internal.Correction>
-0.7573

> <Gold.Goldscore.Hbonds>
donor molecule, donor type, donor heavy atom, donor atom, acceptor molecule, acceptor atom, score
      P1  H  6794  6837       L1    17  0.35

> <Gold.Goldscore.Internal.Vdw.Weighted>
-0.3715

> <Gold.Goldscore.Internal.Torsion.Weighted>
-0.5412

> <Gold.Goldscore.External.Vdw.Weighted>
28.6702

> <Gold.Goldscore.Internal.HBond.Weighted>
0.0000

> <Gold.Goldscore.External.HBond.Weighted>
2.0908

> <Gold.Goldscore.Internal.Correction.Weighted>
-0.7573

> <Gold.Rescore>
     Score     S(PLP)   S(hbond)     S(cho)   S(metal)  DE(clash)   DE(tors)     intcor
     29.26     -27.68       0.90       0.00       0.00       0.00       0.56       ----

> <Gold.PLP.Fitness>
29.2637

> <Gold.PLP.PLP>
-27.6763

> <Gold.PLP.part.hbond>
-2.0000

> <Gold.PLP.part.metal>
0.0000

> <Gold.PLP.part.buried>
-5.5743

> <Gold.PLP.part.nonpolar>
-21.8315

> <Gold.PLP.part.repulsive>
0.3255

> <Gold.PLP.ligand.clash>
0.0000

> <Gold.PLP.ligand.torsion>
0.5624

> <Gold.PLP.Chemscore.Hbond>
0.9040

> <Gold.PLP.Chemscore.CHOScore>
0.0000

> <Gold.PLP.Chemscore.Metal>
0.0000

> <Gold.Chemscore.Hbonds>
donor molecule, donor type, donor heavy atom, donor atom, acceptor molecule, acceptor atom, score
      P1  H  6794  6837       L1    17  1.00

> <Gold.PLP.Chemscore.Internal.Correction>
   9.000000E+99

