#       Name:                CT1002167954
#       Creating user name   hitesit
#       Creation time:       Sun Apr 16 22:58:01 2023


#       File generated by GOLD software.
#

@<TRIPOS>MOLECULE
CT1002167954|ligand_prepared|mol2|1|dock3
    29    30     1
SMALL
NO_CHARGES


@<TRIPOS>ATOM
      1 C1         191.5960  -7.0657  47.1564 C.3            1 RES1               0.0000
      2 C2         191.5086  -7.0893  45.6167 C.ar           1 RES1               0.0000
      3 C3         192.2761  -5.7510  47.5268 C.2            1 RES1               0.0000
      4 C4         190.1649  -7.1913  47.6669 C.2            1 RES1               0.0000
      5 C5         192.4201  -8.2303  47.7533 C.3            1 RES1               0.0000
      6 C6         191.5136  -5.9034  44.8885 C.ar           1 RES1               0.0000
      7 C7         191.4254  -8.2871  44.9117 C.ar           1 RES1               0.0000
      8 N8         191.4982  -4.7651  48.0585 N.am           1 RES1               0.0000
      9 O9         193.4693  -5.5681  47.3190 O.2            1 RES1               0.0000
     10 N10        189.6275  -6.1256  48.3402 N.am           1 RES1               0.0000
     11 O11        189.4919  -8.1971  47.4777 O.2            1 RES1               0.0000
     12 C12        192.7035  -8.0820  49.2398 C.3            1 RES1               0.0000
     13 C13        191.4409  -5.9145  43.5054 C.ar           1 RES1               0.0000
     14 C14        191.3526  -8.2959  43.5286 C.ar           1 RES1               0.0000
     15 C15        190.2187  -4.9067  48.5323 C.2            1 RES1               0.0000
     16 C16        191.3609  -7.1106  42.8245 C.ar           1 RES1               0.0000
     17 O17        189.6504  -3.9786  49.1007 O.2            1 RES1               0.0000
     18 H18        191.8756  -9.1684  47.5895 H              1 RES1               0.0000
     19 H19        193.3746  -8.2986  47.2170 H              1 RES1               0.0000
     20 H20        191.5735  -4.9524  45.4071 H              1 RES1               0.0000
     21 H21        191.4162  -9.2317  45.4448 H              1 RES1               0.0000
     22 H22        191.9054  -3.8366  48.1082 H              1 RES1               0.0000
     23 H23        188.7010  -6.2528  48.7349 H              1 RES1               0.0000
     24 H24        193.2842  -8.9253  49.6078 H              1 RES1               0.0000
     25 H25        193.2660  -7.1716  49.4364 H              1 RES1               0.0000
     26 H26        191.7758  -8.0363  49.8066 H              1 RES1               0.0000
     27 H27        191.4464  -4.9789  42.9560 H              1 RES1               0.0000
     28 H28        191.2891  -9.2396  42.9969 H              1 RES1               0.0000
     29 H29        191.3044  -7.1190  41.7410 H              1 RES1               0.0000
@<TRIPOS>BOND
    1    1    2 1     
    2    1    3 1     
    3    1    4 1     
    4    1    5 1     
    5    2    6 ar    
    6    2    7 ar    
    7    3    8 1     
    8    3    9 2     
    9    4   10 1     
   10    4   11 2     
   11    5   12 1     
   12    5   18 1     
   13    5   19 1     
   14    6   13 ar    
   15    6   20 1     
   16    7   14 ar    
   17    7   21 1     
   18    8   15 1     
   19    8   22 1     
   20   10   15 1     
   21   10   23 1     
   22   12   24 1     
   23   12   25 1     
   24   12   26 1     
   25   13   16 ar    
   26   13   27 1     
   27   14   16 ar    
   28   14   28 1     
   29   15   17 2     
   30   16   29 1     
@<TRIPOS>SUBSTRUCTURE
      1 RES1           1
@<TRIPOS>SET
DONOR_HYDROGENS      STATIC     ATOMS    <user>   **** ""
2 22 23
ATOM$RED        STATIC     ATOMS    COLORGROUP SYSTEM
2 22 23
@<TRIPOS>COMMENT
> <Gold.Version>
2022.3.0

> <Gold.Id.Protein>
unknown|4d1n_clean|pdb

> <Gold.Protein.RotatedTorsions>
[ 6595 6557 6558 6559 ] final   81.72 input  116.17 | X-H torsion
[ 6682 6637 6638 6639 ] final  128.13 input  120.05 | X-H torsion
[ 8044 8009 8010 8011 ] final  126.77 input   40.01 | X-H torsion
[ 8121 8086 8087 8088 ] final -165.82 input   93.99 | X-H torsion
[ 8182 8152 8153 8154 ] final  -31.66 input   75.44 | X-H torsion
[ 8262 8220 8221 8222 ] final   41.13 input   81.29 | X-H torsion
[ 9562 9520 9519 9517 ] final  120.83 input   60.00 | X-H torsion
[ 8325 8297 8298 8299 ] final   -9.93 input   91.63 | X-H torsion
[ 10204 10169 10170 10171 ] final  -72.25 input   34.07 | X-H torsion
[ 7962 7922 7923 7924 ] final   93.14 input   79.92 | X-H torsion
[ 7893 7875 7876 7877 ] final   21.63 input   91.72 | X-H torsion
[ 7902 7880 7879 7876 ] final   75.41 input   60.02 | X-H torsion
[ 6826 6786 6787 6788 ] final  -12.88 input  113.73 | X-H torsion
[ 27193 6320 6319 6318 ] final -108.74 input    0.00 | X-H torsion
[ 27196 6560 6559 6558 ] final   45.70 input    0.00 | X-H torsion
[ 27199 7878 7877 7876 ] final  132.79 input    0.00 | X-H torsion
[ 27202 8012 8011 8010 ] final   59.87 input    0.00 | X-H torsion
[ 27205 8089 8088 8087 ] final  -72.40 input   -0.00 | X-H torsion
[ 27208 8155 8154 8153 ] final   60.33 input   -0.00 | X-H torsion
[ 27214 10086 10085 10084 ] final  -81.78 input    0.00 | X-H torsion
[ 27217 10172 10171 10170 ] final   69.57 input    0.00 | X-H torsion
[ 27220 6367 6366 6365 ] final   11.55 input    0.00 | X-H torsion
[ 27222 7925 7924 7923 ] final   42.26 input   -0.00 | X-H torsion
[ 27224 7790 7789 7788 ] final   -5.22 input   -0.00 | X-H torsion

> <Gold.Protein.ActiveResidues>
 ASP403  THR404  LEU406  ILE407  TYR408  ALA410  LYS411  TRP414  TRP426  SER427 
 LYS428  LEU429  GLN430  VAL431  PHE432  ASP433  TYR453  SER462  ALA463  ILE464 

> <Gold.Protein.RotatedAtoms>
  196.4623   -3.5715   37.5783 H   0  0  0  0  0  0  0  0  0  0  0  0  # atno 6595 bound_to 6557
  198.0773   -3.4998   39.0859 H   0  0  0  0  0  0  0  0  0  0  0  0  # atno 6682 bound_to 6637
  197.1892    1.7117   42.0727 H   0  0  0  0  0  0  0  0  0  0  0  0  # atno 6826 bound_to 6786
  196.4392   -0.7197   50.6062 H   0  0  0  0  0  0  0  0  0  0  0  0  # atno 7893 bound_to 7875
  197.3997   -4.2322   50.6267 H   0  0  0  0  0  0  0  0  0  0  0  0  # atno 7902 bound_to 7880
  195.1471   -1.6712   50.6809 H   0  0  0  0  0  0  0  0  0  0  0  0  # atno 7962 bound_to 7922
  193.5409   -2.1105   48.2041 H   0  0  0  0  0  0  0  0  0  0  0  0  # atno 8044 bound_to 8009
  190.2062   -2.7612   46.7994 H   0  0  0  0  0  0  0  0  0  0  0  0  # atno 8121 bound_to 8086
  188.7521   -3.1900   42.8992 H   0  0  0  0  0  0  0  0  0  0  0  0  # atno 8182 bound_to 8152
  188.2339   -1.0063   39.8917 H   0  0  0  0  0  0  0  0  0  0  0  0  # atno 8262 bound_to 8220
  186.6653   -2.6087   36.8316 H   0  0  0  0  0  0  0  0  0  0  0  0  # atno 8325 bound_to 8297
  185.5804   -5.6482   48.5032 H   0  0  0  0  0  0  0  0  0  0  0  0  # atno 9562 bound_to 9520
  186.9182    1.4296   43.6719 H   0  0  0  0  0  0  0  0  0  0  0  0  # atno 10204 bound_to 10169
  196.2441   -4.5233   36.3331 LP  0  0  0  0  0  0  0  0  0  0  0  0  # atno 27193 bound_to 6320
  194.8128   -5.3309   36.8801 LP  0  0  0  0  0  0  0  0  0  0  0  0  # atno 27194 bound_to 6320
  195.4868   -2.1246   37.5017 LP  0  0  0  0  0  0  0  0  0  0  0  0  # atno 27195 bound_to 6557
  195.9954   -1.7536   41.8513 LP  0  0  0  0  0  0  0  0  0  0  0  0  # atno 27196 bound_to 6560
  197.2290   -0.7378   41.1831 LP  0  0  0  0  0  0  0  0  0  0  0  0  # atno 27197 bound_to 6560
  197.1584   -2.3644   40.0512 LP  0  0  0  0  0  0  0  0  0  0  0  0  # atno 27198 bound_to 6637
  195.2040   -4.6365   48.7864 LP  0  0  0  0  0  0  0  0  0  0  0  0  # atno 27199 bound_to 7878
  195.7825   -3.7333   47.4264 LP  0  0  0  0  0  0  0  0  0  0  0  0  # atno 27200 bound_to 7878
  192.1214   -3.1020   48.4402 LP  0  0  0  0  0  0  0  0  0  0  0  0  # atno 27201 bound_to 8009
  192.5250   -3.7742   45.8165 LP  0  0  0  0  0  0  0  0  0  0  0  0  # atno 27202 bound_to 8012
  191.9648   -2.9868   44.3790 LP  0  0  0  0  0  0  0  0  0  0  0  0  # atno 27203 bound_to 8012
  190.0921   -1.3386   45.7870 LP  0  0  0  0  0  0  0  0  0  0  0  0  # atno 27204 bound_to 8086
  187.6507   -1.0567   43.6433 LP  0  0  0  0  0  0  0  0  0  0  0  0  # atno 27205 bound_to 8089
  189.2315   -0.3655   43.4909 LP  0  0  0  0  0  0  0  0  0  0  0  0  # atno 27206 bound_to 8089
  190.4764   -3.0609   43.1721 LP  0  0  0  0  0  0  0  0  0  0  0  0  # atno 27207 bound_to 8152
  188.6342   -4.6967   40.6852 LP  0  0  0  0  0  0  0  0  0  0  0  0  # atno 27208 bound_to 8155
  188.8433   -4.2343   39.0291 LP  0  0  0  0  0  0  0  0  0  0  0  0  # atno 27209 bound_to 8155
  188.0924   -2.5798   40.6335 LP  0  0  0  0  0  0  0  0  0  0  0  0  # atno 27210 bound_to 8220
  186.4165   -4.3642   47.9548 LP  0  0  0  0  0  0  0  0  0  0  0  0  # atno 27211 bound_to 9520
  186.2530   -5.6946   47.0220 LP  0  0  0  0  0  0  0  0  0  0  0  0  # atno 27212 bound_to 9520
  188.2445   -3.0483   37.4435 LP  0  0  0  0  0  0  0  0  0  0  0  0  # atno 27213 bound_to 8297
  188.5406   -1.1640   47.7127 LP  0  0  0  0  0  0  0  0  0  0  0  0  # atno 27214 bound_to 10086
  186.8090   -1.1694   47.6740 LP  0  0  0  0  0  0  0  0  0  0  0  0  # atno 27215 bound_to 10086
  188.6236    1.0414   43.7249 LP  0  0  0  0  0  0  0  0  0  0  0  0  # atno 27216 bound_to 10169
  187.1518   -0.0583   41.3368 LP  0  0  0  0  0  0  0  0  0  0  0  0  # atno 27217 bound_to 10172
  188.2545    0.2573   40.0390 LP  0  0  0  0  0  0  0  0  0  0  0  0  # atno 27218 bound_to 10172
  195.4322   -2.5808   49.2133 LP  0  0  0  0  0  0  0  0  0  0  0  0  # atno 27219 bound_to 7922
  198.1368   -5.5825   38.7182 LP  0  0  0  0  0  0  0  0  0  0  0  0  # atno 27220 bound_to 6367
  198.5589   -4.0690   37.9895 LP  0  0  0  0  0  0  0  0  0  0  0  0  # atno 27221 bound_to 6367
  192.3027   -0.5994   50.5292 LP  0  0  0  0  0  0  0  0  0  0  0  0  # atno 27222 bound_to 7925
  190.9210   -1.0736   49.5985 LP  0  0  0  0  0  0  0  0  0  0  0  0  # atno 27223 bound_to 7925
  195.8325    1.1503   47.7470 LP  0  0  0  0  0  0  0  0  0  0  0  0  # atno 27224 bound_to 7790
  196.1966   -0.5345   47.5765 LP  0  0  0  0  0  0  0  0  0  0  0  0  # atno 27225 bound_to 7790
  197.7390   -0.1171   49.6148 LP  0  0  0  0  0  0  0  0  0  0  0  0  # atno 27226 bound_to 7875
  197.8081   -2.7961   51.2750 LP  0  0  0  0  0  0  0  0  0  0  0  0  # atno 27227 bound_to 7880
  198.9587   -3.9138   50.9692 LP  0  0  0  0  0  0  0  0  0  0  0  0  # atno 27228 bound_to 7880

> <Gold.Score>
     Fitness  S(hb_ext) S(vdw_ext)  S(hb_int)    S(int)      intcor
     27.28       4.97      16.90       0.00      -0.92      -0.76

> <Gold.Goldscore.Fitness>
27.2803

> <Gold.Goldscore.Internal.Vdw>
-1.1609

> <Gold.Goldscore.Internal.Torsion>
-0.5193

> <Gold.Goldscore.External.Vdw>
16.8955

> <Gold.Goldscore.Internal.HBond>
0.0000

> <Gold.Goldscore.External.HBond>
4.9708

> <Gold.Goldscore.Internal.Correction>
-0.7585

> <Gold.Goldscore.Hbonds>
donor molecule, donor type, donor heavy atom, donor atom, acceptor molecule, acceptor atom, score
      L1  H     8    22       P1  8009  0.83

> <Gold.Goldscore.Internal.Vdw.Weighted>
-1.1609

> <Gold.Goldscore.Internal.Torsion.Weighted>
-0.5193

> <Gold.Goldscore.External.Vdw.Weighted>
23.2313

> <Gold.Goldscore.Internal.HBond.Weighted>
0.0000

> <Gold.Goldscore.External.HBond.Weighted>
4.9708

> <Gold.Goldscore.Internal.Correction.Weighted>
-0.7585

> <Gold.Rescore>
     Score     S(PLP)   S(hbond)     S(cho)   S(metal)  DE(clash)   DE(tors)     intcor
     26.91     -24.53       1.50       0.00       0.00       0.00       1.06       ----

> <Gold.PLP.Fitness>
26.9110

> <Gold.PLP.PLP>
-24.5280

> <Gold.PLP.part.hbond>
-4.1661

> <Gold.PLP.part.metal>
0.0000

> <Gold.PLP.part.buried>
-1.2633

> <Gold.PLP.part.nonpolar>
-20.8132

> <Gold.PLP.part.repulsive>
0.4386

> <Gold.PLP.ligand.clash>
0.0000

> <Gold.PLP.ligand.torsion>
1.0566

> <Gold.PLP.Chemscore.Hbond>
1.4988

> <Gold.PLP.Chemscore.CHOScore>
0.0000

> <Gold.PLP.Chemscore.Metal>
0.0000

> <Gold.Chemscore.Hbonds>
donor molecule, donor type, donor heavy atom, donor atom, acceptor molecule, acceptor atom, score
      L1  H     8    22       P1  8009  1.00

> <Gold.PLP.Chemscore.Internal.Correction>
   9.000000E+99

