crystal
Actelion Java MolfileCreator 1.0

 52 55  0  0  1  0  0  0  0  0999 V2000
    5.5800    2.0698    0.3978 O   0  0  0  0  0  0  0  0  0  0  0  0
    4.3223    1.6361    0.7368 C   0  0  0  0  0  0  0  0  0  0  0  0
    6.4366    2.4976    1.4474 C   0  0  0  0  0  0  0  0  0  0  0  0
    3.5076    1.2127   -0.3241 C   0  0  0  0  0  0  0  0  0  0  0  0
    3.8212    1.6028    2.0429 C   0  0  0  0  0  0  0  0  0  0  0  0
    4.0574    1.2829   -1.5782 O   0  0  0  0  0  0  0  0  0  0  0  0
    2.2189    0.7527   -0.0470 C   0  0  0  0  0  0  0  0  0  0  0  0
    2.5386    1.1532    2.3298 C   0  0  0  0  0  0  0  0  0  0  0  0
    3.2302    0.9533   -2.6848 C   0  0  0  0  0  0  0  0  0  0  0  0
    1.7249    0.7080    1.2830 C   0  0  0  0  0  0  0  0  0  0  0  0
    2.1349    1.1710    3.6024 N   0  0  0  0  0  0  0  0  0  0  0  0
    0.4473    0.2535    1.6589 C   0  0  0  0  0  0  0  0  0  0  0  0
    0.8898    0.7460    3.8585 C   0  0  0  0  0  0  0  0  0  0  0  0
    0.0264    0.3036    2.9337 N   0  0  0  0  0  0  0  0  0  0  0  0
   -0.4404   -0.2173    0.7010 N   0  0  0  0  0  0  0  0  0  0  0  0
    0.4125    0.8117    5.2752 C   0  0  0  0  0  0  0  0  0  0  0  0
   -1.8337   -0.4786    1.0264 C   0  0  0  0  0  0  0  0  0  0  0  0
   -2.6335   -0.3067   -0.2615 C   0  0  0  0  0  0  0  0  0  0  0  0
   -1.9875   -1.8623    1.6660 C   0  0  0  0  0  0  0  0  0  0  0  0
   -2.8278   -1.3520   -1.1852 C   0  0  0  0  0  0  0  0  0  0  0  0
   -3.1510    0.9596   -0.5712 C   0  0  0  0  0  0  0  0  0  0  0  0
   -3.5461   -1.1631   -2.3796 C   0  0  0  0  0  0  0  0  0  0  0  0
   -3.8637    1.1671   -1.7490 C   0  0  0  0  0  0  0  0  0  0  0  0
   -3.7472   -2.2591   -3.3305 C   0  0  0  0  0  0  0  0  0  0  0  0
   -4.0616    0.1135   -2.6428 C   0  0  0  0  0  0  0  0  0  0  0  0
   -3.3870   -3.5428   -3.2616 C   0  0  0  0  0  0  0  0  0  0  0  0
   -4.4433   -2.1445   -4.6412 C   0  0  0  0  0  0  0  0  0  0  0  0
   -3.7565   -4.2690   -4.3607 N   0  0  0  0  0  0  0  0  0  0  0  0
   -4.3607   -3.5265   -5.1826 N   0  0  0  0  0  0  0  0  0  0  0  0
    6.6399    1.6820    2.1490 H   0  0  0  0  0  0  0  0  0  0  0  0
    6.0237    3.3711    1.9626 H   0  0  0  0  0  0  0  0  0  0  0  0
    7.3897    2.7961    1.0002 H   0  0  0  0  0  0  0  0  0  0  0  0
    4.4227    1.9349    2.8832 H   0  0  0  0  0  0  0  0  0  0  0  0
    1.5670    0.4340   -0.8522 H   0  0  0  0  0  0  0  0  0  0  0  0
    2.3562    1.6110   -2.7364 H   0  0  0  0  0  0  0  0  0  0  0  0
    2.9326   -0.0999   -2.6535 H   0  0  0  0  0  0  0  0  0  0  0  0
    3.8151    1.1060   -3.5968 H   0  0  0  0  0  0  0  0  0  0  0  0
   -0.0521   -0.7561   -0.0586 H   0  0  0  0  0  0  0  0  0  0  0  0
   -0.3314    0.0325    5.4678 H   0  0  0  0  0  0  0  0  0  0  0  0
    1.2459    0.6683    5.9696 H   0  0  0  0  0  0  0  0  0  0  0  0
   -0.0419    1.7882    5.4658 H   0  0  0  0  0  0  0  0  0  0  0  0
   -2.2162    0.2628    1.7414 H   0  0  0  0  0  0  0  0  0  0  0  0
   -1.5207   -1.8909    2.6563 H   0  0  0  0  0  0  0  0  0  0  0  0
   -1.5091   -2.6481    1.0712 H   0  0  0  0  0  0  0  0  0  0  0  0
   -3.0443   -2.1226    1.7915 H   0  0  0  0  0  0  0  0  0  0  0  0
   -2.4028   -2.3274   -0.9673 H   0  0  0  0  0  0  0  0  0  0  0  0
   -2.9916    1.7960    0.1076 H   0  0  0  0  0  0  0  0  0  0  0  0
   -4.2625    2.1533   -1.9741 H   0  0  0  0  0  0  0  0  0  0  0  0
   -4.6240    0.3184   -3.5503 H   0  0  0  0  0  0  0  0  0  0  0  0
   -2.8597   -4.0352   -2.4584 H   0  0  0  0  0  0  0  0  0  0  0  0
   -5.4941   -1.8585   -4.5310 H   0  0  0  0  0  0  0  0  0  0  0  0
   -3.9355   -1.4543   -5.3221 H   0  0  0  0  0  0  0  0  0  0  0  0
  1  2  1  0  0  0  0
  1  3  1  0  0  0  0
  2  4  1  0  0  0  0
  2  5  2  0  0  0  0
  4  6  1  0  0  0  0
  4  7  2  0  0  0  0
  5  8  1  0  0  0  0
  6  9  1  0  0  0  0
  7 10  1  0  0  0  0
  8 11  2  0  0  0  0
 10 12  2  0  0  0  0
 11 13  1  0  0  0  0
 12 14  1  0  0  0  0
 12 15  1  0  0  0  0
 13 16  1  0  0  0  0
 15 17  1  0  0  0  0
 17 18  1  0  0  0  0
 17 19  1  0  0  0  0
 18 20  2  0  0  0  0
 18 21  1  0  0  0  0
 20 22  1  0  0  0  0
 21 23  2  0  0  0  0
 22 24  1  0  0  0  0
 22 25  2  0  0  0  0
 24 26  2  0  0  0  0
 24 27  1  0  0  0  0
 26 28  1  0  0  0  0
 27 29  1  0  0  0  0
  8 10  1  0  0  0  0
 13 14  2  0  0  0  0
 23 25  1  0  0  0  0
 28 29  2  0  0  0  0
  3 30  1  0  0  0  0
  3 31  1  0  0  0  0
  3 32  1  0  0  0  0
  5 33  1  0  0  0  0
  7 34  1  0  0  0  0
  9 35  1  0  0  0  0
  9 36  1  0  0  0  0
  9 37  1  0  0  0  0
 15 38  1  0  0  0  0
 16 39  1  0  0  0  0
 16 40  1  0  0  0  0
 16 41  1  0  0  0  0
 17 42  1  0  0  0  0
 19 43  1  0  0  0  0
 19 44  1  0  0  0  0
 19 45  1  0  0  0  0
 20 46  1  0  0  0  0
 21 47  1  0  0  0  0
 23 48  1  0  0  0  0
 25 49  1  0  0  0  0
 26 50  1  0  0  0  0
 27 51  1  0  0  0  0
 27 52  1  0  0  0  0
M  END
>  <Molecule Name>
crystal

>  <MMFF94 Energy>
34.642

$$$$
example_1
Actelion Java MolfileCreator 1.0

 55 58  0  0  1  0  0  0  0  0999 V2000
    3.4201    1.7487    4.0574 O   0  0  0  0  0  0  0  0  0  0  0  0
    2.4260    1.6592    3.1153 C   0  0  0  0  0  0  0  0  0  0  0  0
    4.1296    2.9799    4.1650 C   0  0  0  0  0  0  0  0  0  0  0  0
    1.7574    0.4283    3.0385 C   0  0  0  0  0  0  0  0  0  0  0  0
    2.0501    2.6991    2.2583 C   0  0  0  0  0  0  0  0  0  0  0  0
    5.1717    2.8250    5.2581 C   0  0  0  0  0  0  0  0  0  0  0  0
    2.1701   -0.5421    3.9147 O   0  0  0  0  0  0  0  0  0  0  0  0
    0.7382    0.2681    2.0978 C   0  0  0  0  0  0  0  0  0  0  0  0
    1.0353    2.5526    1.3215 C   0  0  0  0  0  0  0  0  0  0  0  0
    1.4830   -1.7848    3.9022 C   0  0  0  0  0  0  0  0  0  0  0  0
    0.3730    1.3245    1.2228 C   0  0  0  0  0  0  0  0  0  0  0  0
    0.7322    3.6019    0.5540 N   0  0  0  0  0  0  0  0  0  0  0  0
   -0.6321    1.2536    0.2395 C   0  0  0  0  0  0  0  0  0  0  0  0
   -0.2569    3.4462   -0.3365 C   0  0  0  0  0  0  0  0  0  0  0  0
   -0.9593    2.3185   -0.5117 N   0  0  0  0  0  0  0  0  0  0  0  0
   -1.3474    0.0730    0.0557 N   0  0  0  0  0  0  0  0  0  0  0  0
   -0.6353    4.6322   -1.1663 C   0  0  0  0  0  0  0  0  0  0  0  0
   -2.4964    0.0219   -0.8376 C   0  0  0  0  0  0  0  0  0  0  0  0
   -2.0724   -0.6310   -2.1463 C   0  0  0  0  0  0  0  0  0  0  0  0
   -3.6305   -0.7165   -0.1174 C   0  0  0  0  0  0  0  0  0  0  0  0
   -2.0186   -2.0278   -2.3184 C   0  0  0  0  0  0  0  0  0  0  0  0
   -1.6673    0.1860   -3.2108 C   0  0  0  0  0  0  0  0  0  0  0  0
   -1.6005   -2.6112   -3.5278 C   0  0  0  0  0  0  0  0  0  0  0  0
   -1.2474   -0.3718   -4.4151 C   0  0  0  0  0  0  0  0  0  0  0  0
   -1.5529   -4.0653   -3.6968 C   0  0  0  0  0  0  0  0  0  0  0  0
   -1.2175   -1.7583   -4.5720 C   0  0  0  0  0  0  0  0  0  0  0  0
   -1.9308   -5.0457   -2.8732 C   0  0  0  0  0  0  0  0  0  0  0  0
   -1.0475   -4.7756   -4.9033 C   0  0  0  0  0  0  0  0  0  0  0  0
   -1.7289   -6.2961   -3.3904 N   0  0  0  0  0  0  0  0  0  0  0  0
   -1.2260   -6.2072   -4.5442 N   0  0  0  0  0  0  0  0  0  0  0  0
    4.6347    3.2124    3.2206 H   0  0  0  0  0  0  0  0  0  0  0  0
    3.4447    3.7912    4.4374 H   0  0  0  0  0  0  0  0  0  0  0  0
    2.5414    3.6660    2.3001 H   0  0  0  0  0  0  0  0  0  0  0  0
    4.6957    2.5742    6.2118 H   0  0  0  0  0  0  0  0  0  0  0  0
    5.7468    3.7468    5.3820 H   0  0  0  0  0  0  0  0  0  0  0  0
    5.8604    2.0074    5.0209 H   0  0  0  0  0  0  0  0  0  0  0  0
    0.1977   -0.6688    2.0311 H   0  0  0  0  0  0  0  0  0  0  0  0
    1.6043   -2.2927    2.9400 H   0  0  0  0  0  0  0  0  0  0  0  0
    0.4246   -1.6542    4.1509 H   0  0  0  0  0  0  0  0  0  0  0  0
    1.9289   -2.4216    4.6723 H   0  0  0  0  0  0  0  0  0  0  0  0
   -0.7970   -0.7734    0.0979 H   0  0  0  0  0  0  0  0  0  0  0  0
   -1.0312    4.3137   -2.1355 H   0  0  0  0  0  0  0  0  0  0  0  0
   -1.4009    5.2159   -0.6471 H   0  0  0  0  0  0  0  0  0  0  0  0
    0.2349    5.2710   -1.3454 H   0  0  0  0  0  0  0  0  0  0  0  0
   -2.8981    1.0194   -1.0587 H   0  0  0  0  0  0  0  0  0  0  0  0
   -4.4903   -0.8624   -0.7801 H   0  0  0  0  0  0  0  0  0  0  0  0
   -3.9673   -0.1374    0.7504 H   0  0  0  0  0  0  0  0  0  0  0  0
   -3.3179   -1.6962    0.2601 H   0  0  0  0  0  0  0  0  0  0  0  0
   -2.3006   -2.6675   -1.4873 H   0  0  0  0  0  0  0  0  0  0  0  0
   -1.6677    1.2692   -3.0975 H   0  0  0  0  0  0  0  0  0  0  0  0
   -0.9367    0.2751   -5.2317 H   0  0  0  0  0  0  0  0  0  0  0  0
   -0.8830   -2.1525   -5.5281 H   0  0  0  0  0  0  0  0  0  0  0  0
   -2.3617   -4.9469   -1.8883 H   0  0  0  0  0  0  0  0  0  0  0  0
   -1.6362   -4.5484   -5.7975 H   0  0  0  0  0  0  0  0  0  0  0  0
    0.0120   -4.5744   -5.0898 H   0  0  0  0  0  0  0  0  0  0  0  0
  1  2  1  0  0  0  0
  1  3  1  0  0  0  0
  2  4  1  0  0  0  0
  2  5  2  0  0  0  0
  3  6  1  0  0  0  0
  4  7  1  0  0  0  0
  4  8  2  0  0  0  0
  5  9  1  0  0  0  0
  7 10  1  0  0  0  0
  8 11  1  0  0  0  0
  9 12  2  0  0  0  0
 11 13  2  0  0  0  0
 12 14  1  0  0  0  0
 13 15  1  0  0  0  0
 13 16  1  0  0  0  0
 14 17  1  0  0  0  0
 16 18  1  0  0  0  0
 18 19  1  0  0  0  0
 18 20  1  0  0  0  0
 19 21  2  0  0  0  0
 19 22  1  0  0  0  0
 21 23  1  0  0  0  0
 22 24  2  0  0  0  0
 23 25  1  0  0  0  0
 23 26  2  0  0  0  0
 25 27  2  0  0  0  0
 25 28  1  0  0  0  0
 27 29  1  0  0  0  0
 28 30  1  0  0  0  0
  9 11  1  0  0  0  0
 14 15  2  0  0  0  0
 24 26  1  0  0  0  0
 29 30  2  0  0  0  0
  3 31  1  0  0  0  0
  3 32  1  0  0  0  0
  5 33  1  0  0  0  0
  6 34  1  0  0  0  0
  6 35  1  0  0  0  0
  6 36  1  0  0  0  0
  8 37  1  0  0  0  0
 10 38  1  0  0  0  0
 10 39  1  0  0  0  0
 10 40  1  0  0  0  0
 16 41  1  0  0  0  0
 17 42  1  0  0  0  0
 17 43  1  0  0  0  0
 17 44  1  0  0  0  0
 18 45  1  0  0  0  0
 20 46  1  0  0  0  0
 20 47  1  0  0  0  0
 20 48  1  0  0  0  0
 21 49  1  0  0  0  0
 22 50  1  0  0  0  0
 24 51  1  0  0  0  0
 26 52  1  0  0  0  0
 27 53  1  0  0  0  0
 28 54  1  0  0  0  0
 28 55  1  0  0  0  0
M  END
>  <Molecule Name>
example_1

>  <MMFF94 Energy>
33.266

$$$$
example_2
Actelion Java MolfileCreator 1.0

 42 44  0  0  1  0  0  0  0  0999 V2000
    0.7917   -1.7424    4.7576 O   0  0  0  0  0  0  0  0  0  0  0  0
    0.7390   -1.6455    3.3891 C   0  0  0  0  0  0  0  0  0  0  0  0
    1.7436   -2.6339    5.3210 C   0  0  0  0  0  0  0  0  0  0  0  0
   -0.2166   -0.7584    2.8690 C   0  0  0  0  0  0  0  0  0  0  0  0
    1.5563   -2.3687    2.5119 C   0  0  0  0  0  0  0  0  0  0  0  0
   -0.9948   -0.0956    3.7829 O   0  0  0  0  0  0  0  0  0  0  0  0
   -0.3192   -0.6105    1.4858 C   0  0  0  0  0  0  0  0  0  0  0  0
    1.4620   -2.2292    1.1329 C   0  0  0  0  0  0  0  0  0  0  0  0
   -1.9567    0.8248    3.2869 C   0  0  0  0  0  0  0  0  0  0  0  0
    0.5345   -1.3228    0.6094 C   0  0  0  0  0  0  0  0  0  0  0  0
    2.2556   -2.9757    0.3578 N   0  0  0  0  0  0  0  0  0  0  0  0
    0.5102   -1.2282   -0.7905 C   0  0  0  0  0  0  0  0  0  0  0  0
    2.1083   -2.8359   -0.9646 C   0  0  0  0  0  0  0  0  0  0  0  0
    1.2691   -1.9997   -1.5834 N   0  0  0  0  0  0  0  0  0  0  0  0
   -0.3097   -0.3224   -1.4696 N   0  0  0  0  0  0  0  0  0  0  0  0
    0.3054    0.9765   -1.7908 C   0  0  0  0  0  0  0  0  0  0  0  0
   -0.4679    1.5989   -2.9480 C   0  0  0  0  0  0  0  0  0  0  0  0
    0.3309    1.9386   -0.6039 C   0  0  0  0  0  0  0  0  0  0  0  0
   -1.8515    1.8294   -2.8610 C   0  0  0  0  0  0  0  0  0  0  0  0
    0.1985    1.9517   -4.1320 C   0  0  0  0  0  0  0  0  0  0  0  0
   -2.5472    2.4016   -3.9271 C   0  0  0  0  0  0  0  0  0  0  0  0
   -0.4996    2.5244   -5.1971 C   0  0  0  0  0  0  0  0  0  0  0  0
   -1.8708    2.7499   -5.0939 C   0  0  0  0  0  0  0  0  0  0  0  0
    1.5422   -3.6675    5.0211 H   0  0  0  0  0  0  0  0  0  0  0  0
    2.7650   -2.3369    5.0617 H   0  0  0  0  0  0  0  0  0  0  0  0
    1.6485   -2.5799    6.4098 H   0  0  0  0  0  0  0  0  0  0  0  0
    2.2923   -3.0744    2.8836 H   0  0  0  0  0  0  0  0  0  0  0  0
   -1.0664    0.0424    1.0471 H   0  0  0  0  0  0  0  0  0  0  0  0
   -2.7116    0.3166    2.6781 H   0  0  0  0  0  0  0  0  0  0  0  0
   -1.4774    1.6360    2.7289 H   0  0  0  0  0  0  0  0  0  0  0  0
   -2.4679    1.2699    4.1460 H   0  0  0  0  0  0  0  0  0  0  0  0
    2.7338   -3.4582   -1.5953 H   0  0  0  0  0  0  0  0  0  0  0  0
   -0.5650   -0.7768   -2.3469 H   0  0  0  0  0  0  0  0  0  0  0  0
    1.3404    0.8133   -2.1213 H   0  0  0  0  0  0  0  0  0  0  0  0
    0.6982    2.9254   -0.9093 H   0  0  0  0  0  0  0  0  0  0  0  0
    0.9991    1.5786    0.1841 H   0  0  0  0  0  0  0  0  0  0  0  0
   -0.6631    2.0786   -0.1653 H   0  0  0  0  0  0  0  0  0  0  0  0
   -2.3946    1.5538   -1.9590 H   0  0  0  0  0  0  0  0  0  0  0  0
    1.2681    1.7816   -4.2351 H   0  0  0  0  0  0  0  0  0  0  0  0
   -3.6177    2.5725   -3.8473 H   0  0  0  0  0  0  0  0  0  0  0  0
    0.0270    2.7934   -6.1092 H   0  0  0  0  0  0  0  0  0  0  0  0
   -2.4129    3.1944   -5.9244 H   0  0  0  0  0  0  0  0  0  0  0  0
  1  2  1  0  0  0  0
  1  3  1  0  0  0  0
  2  4  1  0  0  0  0
  2  5  2  0  0  0  0
  4  6  1  0  0  0  0
  4  7  2  0  0  0  0
  5  8  1  0  0  0  0
  6  9  1  0  0  0  0
  7 10  1  0  0  0  0
  8 11  2  0  0  0  0
 10 12  2  0  0  0  0
 11 13  1  0  0  0  0
 12 14  1  0  0  0  0
 12 15  1  0  0  0  0
 15 16  1  0  0  0  0
 16 17  1  0  0  0  0
 16 18  1  0  0  0  0
 17 19  2  0  0  0  0
 17 20  1  0  0  0  0
 19 21  1  0  0  0  0
 20 22  2  0  0  0  0
 21 23  2  0  0  0  0
  8 10  1  0  0  0  0
 13 14  2  0  0  0  0
 22 23  1  0  0  0  0
  3 24  1  0  0  0  0
  3 25  1  0  0  0  0
  3 26  1  0  0  0  0
  5 27  1  0  0  0  0
  7 28  1  0  0  0  0
  9 29  1  0  0  0  0
  9 30  1  0  0  0  0
  9 31  1  0  0  0  0
 13 32  1  0  0  0  0
 15 33  1  0  0  0  0
 16 34  1  0  0  0  0
 18 35  1  0  0  0  0
 18 36  1  0  0  0  0
 18 37  1  0  0  0  0
 19 38  1  0  0  0  0
 20 39  1  0  0  0  0
 21 40  1  0  0  0  0
 22 41  1  0  0  0  0
 23 42  1  0  0  0  0
M  END
>  <Molecule Name>
example_2

>  <MMFF94 Energy>
24.424

$$$$
