#       Name:                CT1002167954
#       Creating user name   hitesit
#       Creation time:       Sun Apr 16 22:50:37 2023


#       File generated by GOLD software.
#

@<TRIPOS>MOLECULE
CT1002167954|ligand_prepared|mol2|1|dock1
    29    30     1
SMALL
NO_CHARGES


@<TRIPOS>ATOM
      1 C1          20.6217  -9.8321  -2.2778 C.3            1 RES1               0.0000
      2 C2          21.6870 -10.9044  -1.9709 C.ar           1 RES1               0.0000
      3 C3          19.8192  -9.6455  -0.9935 C.2            1 RES1               0.0000
      4 C4          21.3838  -8.5883  -2.7215 C.2            1 RES1               0.0000
      5 C5          19.6478 -10.2258  -3.4127 C.3            1 RES1               0.0000
      6 C6          22.9445 -10.5393  -1.4995 C.ar           1 RES1               0.0000
      7 C7          21.4266 -12.2602  -2.1513 C.ar           1 RES1               0.0000
      8 N8          20.0327  -8.5062  -0.2750 N.am           1 RES1               0.0000
      9 O9          19.0401 -10.5032  -0.5966 O.2            1 RES1               0.0000
     10 N10         21.3196  -7.4769  -1.9224 N.am           1 RES1               0.0000
     11 O11         22.0528  -8.5660  -3.7473 O.2            1 RES1               0.0000
     12 C12         18.7261  -9.0977  -3.8486 C.3            1 RES1               0.0000
     13 C13         23.9059 -11.4952  -1.2159 C.ar           1 RES1               0.0000
     14 C14         22.3895 -13.2144  -1.8673 C.ar           1 RES1               0.0000
     15 C15         20.7037  -7.3892  -0.7038 C.2            1 RES1               0.0000
     16 C16         23.6290 -12.8332  -1.3991 C.ar           1 RES1               0.0000
     17 O17         20.7358  -6.3710  -0.0187 O.2            1 RES1               0.0000
     18 H18         20.2318 -10.5595  -4.2793 H              1 RES1               0.0000
     19 H19         19.0357 -11.0714  -3.0752 H              1 RES1               0.0000
     20 H20         23.1815  -9.4910  -1.3514 H              1 RES1               0.0000
     21 H21         20.4588 -12.5832  -2.5197 H              1 RES1               0.0000
     22 H22         19.6589  -8.4825   0.6684 H              1 RES1               0.0000
     23 H23         21.7730  -6.6371  -2.2682 H              1 RES1               0.0000
     24 H24         18.0639  -9.4272  -4.6465 H              1 RES1               0.0000
     25 H25         18.1121  -8.7582  -3.0171 H              1 RES1               0.0000
     26 H26         19.3011  -8.2493  -4.2140 H              1 RES1               0.0000
     27 H27         24.8802 -11.1899  -0.8489 H              1 RES1               0.0000
     28 H28         22.1675 -14.2663  -2.0137 H              1 RES1               0.0000
     29 H29         24.3821 -13.5818  -1.1765 H              1 RES1               0.0000
@<TRIPOS>BOND
    1    1    2 1     
    2    1    3 1     
    3    1    4 1     
    4    1    5 1     
    5    2    6 ar    
    6    2    7 ar    
    7    3    8 1     
    8    3    9 2     
    9    4   10 1     
   10    4   11 2     
   11    5   12 1     
   12    5   18 1     
   13    5   19 1     
   14    6   13 ar    
   15    6   20 1     
   16    7   14 ar    
   17    7   21 1     
   18    8   15 1     
   19    8   22 1     
   20   10   15 1     
   21   10   23 1     
   22   12   24 1     
   23   12   25 1     
   24   12   26 1     
   25   13   16 ar    
   26   13   27 1     
   27   14   16 ar    
   28   14   28 1     
   29   15   17 2     
   30   16   29 1     
@<TRIPOS>SUBSTRUCTURE
      1 RES1           1
@<TRIPOS>SET
DONOR_HYDROGENS      STATIC     ATOMS    <user>   **** ""
2 22 23
ATOM$RED        STATIC     ATOMS    COLORGROUP SYSTEM
2 22 23
@<TRIPOS>COMMENT
> <Gold.Version>
2022.3.0

> <Gold.Id.Protein>
unknown|3oxt_clean|pdb

> <Gold.Protein.RotatedTorsions>
[ 3607 3598 3597 3595 ] final  -85.06 input   60.01 | X-H torsion
[ 3527 3518 3517 3515 ] final  116.58 input   60.00 | X-H torsion
[ 3788 3779 3778 3776 ] final  -42.24 input   59.99 | X-H torsion
[ 3080 3073 3071 3068 ] final  -41.28 input   60.03 | X-H torsion
[ 5059 5050 5049 5047 ] final   81.61 input   60.00 | X-H torsion
[ 2545 2534 2533 2532 ] final -178.31 input   59.97 | X-H torsion
[  570  565  563  560 ] final  -76.96 input   59.99 | X-H torsion
[ 1886 1881 1880 1877 ] final  108.23 input   59.97 | X-H torsion
[ 3130 3121 3120 3118 ] final -124.70 input   60.01 | X-H torsion
[  590  585  584  581 ] final  168.27 input   60.02 | X-H torsion

> <Gold.Protein.ActiveResidues>
 LEU49   GLY50   THR51   GLY52   SER53   PHE54   LEU82   LYS83   GLN84   HIS87  
 GLY126  GLU127  MET128  PHE129  SER130  HIS131  LEU132  ARG133  ARG134  ILE135 
 GLY136  ARG137  ARG165  ASP166  LEU167  LYS168  PRO169  GLU170  ASN171  LEU173 
 ASP184  GLY186  PHE187  TPO197  LEU198  CYS199  GLY200  THR201  PRO202  GLU203 
 TYR204  LEU205  ILE209  ILE210  VAL226  LEU227  TYR229  GLU230  ALA233  GLY234 
 TYR235  PRO236  PRO237  PHE238  PHE239  ALA240  ASP241  GLN242  PRO243  ILE244 
 GLN245  ILE246  TYR247  LYS249  ARG256  PHE257  PRO258  SER259  ASN326  PHE327 
 ASP328  ASP329  TYR330 

> <Gold.Protein.RotatedAtoms>
   21.4865  -12.9511    6.9897 H   0  0  0  0  0  0  0  0  0  0  0  0  # atno 570  bound_to 565 
   16.9309  -11.3049   -2.5239 H   0  0  0  0  0  0  0  0  0  0  0  0  # atno 590  bound_to 585 
   27.8007   -4.9999   11.2524 H   0  0  0  0  0  0  0  0  0  0  0  0  # atno 1886 bound_to 1881
   20.1050   -4.9572    0.4784 H   0  0  0  0  0  0  0  0  0  0  0  0  # atno 2545 bound_to 2534
   19.5816   -3.9342    1.6735 H   0  0  0  0  0  0  0  0  0  0  0  0  # atno 2546 bound_to 2534
   19.5065   -3.4628    0.0859 H   0  0  0  0  0  0  0  0  0  0  0  0  # atno 2547 bound_to 2534
   17.9557   -3.0038   -0.9109 H   0  0  0  0  0  0  0  0  0  0  0  0  # atno 3080 bound_to 3073
   22.2299    5.2938    3.5310 H   0  0  0  0  0  0  0  0  0  0  0  0  # atno 3130 bound_to 3121
   17.2545   14.1362    8.0088 H   0  0  0  0  0  0  0  0  0  0  0  0  # atno 3527 bound_to 3518
   17.4240   13.7433   11.4826 H   0  0  0  0  0  0  0  0  0  0  0  0  # atno 3607 bound_to 3598
   10.5069   -0.5780   -3.2071 H   0  0  0  0  0  0  0  0  0  0  0  0  # atno 3788 bound_to 3779
   24.2687  -10.0488    8.3460 H   0  0  0  0  0  0  0  0  0  0  0  0  # atno 5059 bound_to 5050
   16.6284   13.4110   12.8626 LP  0  0  0  0  0  0  0  0  0  0  0  0  # atno 5367 bound_to 3598
   15.8042   13.5888   11.4641 LP  0  0  0  0  0  0  0  0  0  0  0  0  # atno 5368 bound_to 3598
   16.6557   12.6265    8.1178 LP  0  0  0  0  0  0  0  0  0  0  0  0  # atno 5371 bound_to 3518
   16.2373   13.5851    6.8637 LP  0  0  0  0  0  0  0  0  0  0  0  0  # atno 5372 bound_to 3518
    9.0255   -1.2458   -3.1222 LP  0  0  0  0  0  0  0  0  0  0  0  0  # atno 5429 bound_to 3779
    9.8020   -0.7981   -1.7572 LP  0  0  0  0  0  0  0  0  0  0  0  0  # atno 5430 bound_to 3779
   19.0443   -2.4388    0.1584 LP  0  0  0  0  0  0  0  0  0  0  0  0  # atno 5433 bound_to 3073
   19.1614   -2.0369   -1.4200 LP  0  0  0  0  0  0  0  0  0  0  0  0  # atno 5434 bound_to 3073
   24.5461   -9.5979    9.8842 LP  0  0  0  0  0  0  0  0  0  0  0  0  # atno 5443 bound_to 5050
   23.0146   -9.7566    9.3401 LP  0  0  0  0  0  0  0  0  0  0  0  0  # atno 5444 bound_to 5050
   20.1128  -13.6771    6.5055 LP  0  0  0  0  0  0  0  0  0  0  0  0  # atno 5447 bound_to 565 
   20.7790  -12.4950    5.5969 LP  0  0  0  0  0  0  0  0  0  0  0  0  # atno 5448 bound_to 565 
   26.2960   -4.6406   11.7573 LP  0  0  0  0  0  0  0  0  0  0  0  0  # atno 5453 bound_to 1881
   27.2479   -5.6214   12.6510 LP  0  0  0  0  0  0  0  0  0  0  0  0  # atno 5454 bound_to 1881
   22.9822    3.8570    3.3958 LP  0  0  0  0  0  0  0  0  0  0  0  0  # atno 5481 bound_to 3121
   21.5983    3.9796    4.2539 LP  0  0  0  0  0  0  0  0  0  0  0  0  # atno 5482 bound_to 3121
   18.1443  -12.3577   -2.2621 LP  0  0  0  0  0  0  0  0  0  0  0  0  # atno 5489 bound_to 585 
   17.9541  -11.0664   -1.2808 LP  0  0  0  0  0  0  0  0  0  0  0  0  # atno 5490 bound_to 585 

> <Gold.Score>
     Fitness  S(hb_ext) S(vdw_ext)  S(hb_int)    S(int)      intcor
     44.34      11.84      24.08       0.00      -0.62      -0.76

> <Gold.Goldscore.Fitness>
44.3362

> <Gold.Goldscore.Internal.Vdw>
-0.9131

> <Gold.Goldscore.Internal.Torsion>
-0.4714

> <Gold.Goldscore.External.Vdw>
24.0810

> <Gold.Goldscore.Internal.HBond>
0.0000

> <Gold.Goldscore.External.HBond>
11.8443

> <Gold.Goldscore.Internal.Correction>
-0.7650

> <Gold.Goldscore.Hbonds>
donor molecule, donor type, donor heavy atom, donor atom, acceptor molecule, acceptor atom, score
      P1  H  2534  2545       L1    17  0.84
      P1  H   580   587       L1     9  0.82
      L1  H    10    23       P1  2502  0.86

> <Gold.Goldscore.Internal.Vdw.Weighted>
-0.9131

> <Gold.Goldscore.Internal.Torsion.Weighted>
-0.4714

> <Gold.Goldscore.External.Vdw.Weighted>
33.1114

> <Gold.Goldscore.Internal.HBond.Weighted>
0.0000

> <Gold.Goldscore.External.HBond.Weighted>
11.8443

> <Gold.Goldscore.Internal.Correction.Weighted>
-0.7650

> <Gold.Rescore>
     Score     S(PLP)   S(hbond)     S(cho)   S(metal)  DE(clash)   DE(tors)     intcor
     45.65     -39.48       2.82       0.00       0.00       2.13       0.08       ----

> <Gold.PLP.Fitness>
45.6490

> <Gold.PLP.PLP>
-39.4843

> <Gold.PLP.part.hbond>
-5.0000

> <Gold.PLP.part.metal>
0.0000

> <Gold.PLP.part.buried>
0.4077

> <Gold.PLP.part.nonpolar>
-35.1442

> <Gold.PLP.part.repulsive>
0.5111

> <Gold.PLP.ligand.clash>
2.1316

> <Gold.PLP.ligand.torsion>
0.0759

> <Gold.PLP.Chemscore.Hbond>
2.8160

> <Gold.PLP.Chemscore.CHOScore>
0.0000

> <Gold.PLP.Chemscore.Metal>
0.0000

> <Gold.Chemscore.Hbonds>
donor molecule, donor type, donor heavy atom, donor atom, acceptor molecule, acceptor atom, score
      L1  H    10    23       P1  2502  0.52
      P1  H  2534  2545       L1    17  1.00
      P1  H   580   587       L1     9  0.67

> <Gold.PLP.Chemscore.Internal.Correction>
   9.000000E+99

#       Name:                CT1002167954
#       Creating user name   hitesit
#       Creation time:       Sun Apr 16 22:50:39 2023


#       File generated by GOLD software.
#

@<TRIPOS>MOLECULE
CT1002167954|ligand_prepared|mol2|1|dock2
    29    30     1
SMALL
NO_CHARGES


@<TRIPOS>ATOM
      1 C1          20.7528  -9.6734  -2.5188 C.3            1 RES1               0.0000
      2 C2          21.9413 -10.6244  -2.2703 C.ar           1 RES1               0.0000
      3 C3          19.9710  -9.6137  -1.2098 C.2            1 RES1               0.0000
      4 C4          21.3557  -8.3394  -2.9447 C.2            1 RES1               0.0000
      5 C5          19.7982 -10.1460  -3.6399 C.3            1 RES1               0.0000
      6 C6          22.3478 -10.9270  -0.9742 C.ar           1 RES1               0.0000
      7 C7          22.6381 -11.2079  -3.3251 C.ar           1 RES1               0.0000
      8 N8          20.0738  -8.4767  -0.4637 N.am           1 RES1               0.0000
      9 O9          19.3059 -10.5650  -0.8188 O.2            1 RES1               0.0000
     10 N10         21.1883  -7.2640  -2.1121 N.am           1 RES1               0.0000
     11 O11         21.9885  -8.2136  -3.9859 O.2            1 RES1               0.0000
     12 C12         18.5423  -9.2993  -3.7732 C.3            1 RES1               0.0000
     13 C13         23.4105 -11.7841  -0.7408 C.ar           1 RES1               0.0000
     14 C14         23.7007 -12.0646  -3.0896 C.ar           1 RES1               0.0000
     15 C15         20.6010  -7.2794  -0.8763 C.2            1 RES1               0.0000
     16 C16         24.0873 -12.3538  -1.7982 C.ar           1 RES1               0.0000
     17 O17         20.5366  -6.2826  -0.1626 O.2            1 RES1               0.0000
     18 H18         20.3387 -10.1287  -4.5944 H              1 RES1               0.0000
     19 H19         19.5047 -11.1839  -3.4396 H              1 RES1               0.0000
     20 H20         21.8288 -10.4863  -0.1295 H              1 RES1               0.0000
     21 H21         22.3523 -10.9939  -4.3494 H              1 RES1               0.0000
     22 H22         19.7266  -8.5208   0.4891 H              1 RES1               0.0000
     23 H23         21.5332  -6.3690  -2.4443 H              1 RES1               0.0000
     24 H24         17.9077  -9.6738  -4.5737 H              1 RES1               0.0000
     25 H25         17.9672  -9.3142  -2.8497 H              1 RES1               0.0000
     26 H26         18.7962  -8.2654  -3.9977 H              1 RES1               0.0000
     27 H27         23.7116 -12.0074   0.2773 H              1 RES1               0.0000
     28 H28         24.2309 -12.5102  -3.9248 H              1 RES1               0.0000
     29 H29         24.9194 -13.0255  -1.6152 H              1 RES1               0.0000
@<TRIPOS>BOND
    1    1    2 1     
    2    1    3 1     
    3    1    4 1     
    4    1    5 1     
    5    2    6 ar    
    6    2    7 ar    
    7    3    8 1     
    8    3    9 2     
    9    4   10 1     
   10    4   11 2     
   11    5   12 1     
   12    5   18 1     
   13    5   19 1     
   14    6   13 ar    
   15    6   20 1     
   16    7   14 ar    
   17    7   21 1     
   18    8   15 1     
   19    8   22 1     
   20   10   15 1     
   21   10   23 1     
   22   12   24 1     
   23   12   25 1     
   24   12   26 1     
   25   13   16 ar    
   26   13   27 1     
   27   14   16 ar    
   28   14   28 1     
   29   15   17 2     
   30   16   29 1     
@<TRIPOS>SUBSTRUCTURE
      1 RES1           1
@<TRIPOS>SET
DONOR_HYDROGENS      STATIC     ATOMS    <user>   **** ""
2 22 23
ATOM$RED        STATIC     ATOMS    COLORGROUP SYSTEM
2 22 23
@<TRIPOS>COMMENT
> <Gold.Version>
2022.3.0

> <Gold.Id.Protein>
unknown|3oxt_clean|pdb

> <Gold.Protein.RotatedTorsions>
[ 3607 3598 3597 3595 ] final   -5.47 input   60.01 | X-H torsion
[ 3527 3518 3517 3515 ] final -161.08 input   60.00 | X-H torsion
[ 3788 3779 3778 3776 ] final -129.59 input   59.99 | X-H torsion
[ 3080 3073 3071 3068 ] final  -48.47 input   60.03 | X-H torsion
[ 5059 5050 5049 5047 ] final  104.48 input   60.00 | X-H torsion
[ 2545 2534 2533 2532 ] final  176.11 input   59.97 | X-H torsion
[  570  565  563  560 ] final  -75.12 input   59.99 | X-H torsion
[ 1886 1881 1880 1877 ] final   -3.14 input   59.97 | X-H torsion
[ 3130 3121 3120 3118 ] final   29.11 input   60.01 | X-H torsion
[  590  585  584  581 ] final  148.55 input   60.02 | X-H torsion

> <Gold.Protein.ActiveResidues>
 LEU49   GLY50   THR51   GLY52   SER53   PHE54   LEU82   LYS83   GLN84   HIS87  
 GLY126  GLU127  MET128  PHE129  SER130  HIS131  LEU132  ARG133  ARG134  ILE135 
 GLY136  ARG137  ARG165  ASP166  LEU167  LYS168  PRO169  GLU170  ASN171  LEU173 
 ASP184  GLY186  PHE187  TPO197  LEU198  CYS199  GLY200  THR201  PRO202  GLU203 
 TYR204  LEU205  ILE209  ILE210  VAL226  LEU227  TYR229  GLU230  ALA233  GLY234 
 TYR235  PRO236  PRO237  PHE238  PHE239  ALA240  ASP241  GLN242  PRO243  ILE244 
 GLN245  ILE246  TYR247  LYS249  ARG256  PHE257  PRO258  SER259  ASN326  PHE327 
 ASP328  ASP329  TYR330 

> <Gold.Protein.RotatedAtoms>
   21.4984  -12.9295    6.9727 H   0  0  0  0  0  0  0  0  0  0  0  0  # atno 570  bound_to 565 
   17.0113  -11.5707   -2.6844 H   0  0  0  0  0  0  0  0  0  0  0  0  # atno 590  bound_to 585 
   26.3599   -4.5933   11.6401 H   0  0  0  0  0  0  0  0  0  0  0  0  # atno 1886 bound_to 1881
   20.0990   -4.9268    0.3906 H   0  0  0  0  0  0  0  0  0  0  0  0  # atno 2545 bound_to 2534
   19.6159   -4.0190    1.6911 H   0  0  0  0  0  0  0  0  0  0  0  0  # atno 2546 bound_to 2534
   19.4782   -3.4086    0.1560 H   0  0  0  0  0  0  0  0  0  0  0  0  # atno 2547 bound_to 2534
   17.9533   -3.0286   -0.7961 H   0  0  0  0  0  0  0  0  0  0  0  0  # atno 3080 bound_to 3073
   21.9547    3.5886    4.1172 H   0  0  0  0  0  0  0  0  0  0  0  0  # atno 3130 bound_to 3121
   16.5519   14.0866    6.9963 H   0  0  0  0  0  0  0  0  0  0  0  0  # atno 3527 bound_to 3518
   16.3014   13.7095   11.0648 H   0  0  0  0  0  0  0  0  0  0  0  0  # atno 3607 bound_to 3598
    9.3682   -1.1144   -3.5021 H   0  0  0  0  0  0  0  0  0  0  0  0  # atno 3788 bound_to 3779
   23.9022  -10.0648    8.2911 H   0  0  0  0  0  0  0  0  0  0  0  0  # atno 5059 bound_to 5050
   17.5449   13.6411   12.1120 LP  0  0  0  0  0  0  0  0  0  0  0  0  # atno 5367 bound_to 3598
   16.0182   13.3927   12.6355 LP  0  0  0  0  0  0  0  0  0  0  0  0  # atno 5368 bound_to 3598
   17.2910   13.6595    8.3823 LP  0  0  0  0  0  0  0  0  0  0  0  0  # atno 5371 bound_to 3518
   16.3090   12.6021    7.6180 LP  0  0  0  0  0  0  0  0  0  0  0  0  # atno 5372 bound_to 3518
    9.3351   -1.0180   -1.8781 LP  0  0  0  0  0  0  0  0  0  0  0  0  # atno 5429 bound_to 3779
   10.6393   -0.4857   -2.7042 LP  0  0  0  0  0  0  0  0  0  0  0  0  # atno 5430 bound_to 3779
   19.1293   -2.3689    0.1148 LP  0  0  0  0  0  0  0  0  0  0  0  0  # atno 5433 bound_to 3073
   19.0789   -2.0818   -1.4920 LP  0  0  0  0  0  0  0  0  0  0  0  0  # atno 5434 bound_to 3073
   24.7807   -9.6794    9.6049 LP  0  0  0  0  0  0  0  0  0  0  0  0  # atno 5443 bound_to 5050
   23.1494   -9.6590    9.6748 LP  0  0  0  0  0  0  0  0  0  0  0  0  # atno 5444 bound_to 5050
   20.1263  -13.6851    6.5313 LP  0  0  0  0  0  0  0  0  0  0  0  0  # atno 5447 bound_to 565 
   20.7536  -12.5088    5.5883 LP  0  0  0  0  0  0  0  0  0  0  0  0  # atno 5448 bound_to 565 
   27.1156   -5.5841   12.6866 LP  0  0  0  0  0  0  0  0  0  0  0  0  # atno 5453 bound_to 1881
   27.8792   -5.0874   11.3313 LP  0  0  0  0  0  0  0  0  0  0  0  0  # atno 5454 bound_to 1881
   21.7926    5.1841    3.8399 LP  0  0  0  0  0  0  0  0  0  0  0  0  # atno 5481 bound_to 3121
   23.0649    4.3698    3.2195 LP  0  0  0  0  0  0  0  0  0  0  0  0  # atno 5482 bound_to 3121
   18.3167  -12.2659   -2.0051 LP  0  0  0  0  0  0  0  0  0  0  0  0  # atno 5489 bound_to 585 
   17.7007  -10.8906   -1.3763 LP  0  0  0  0  0  0  0  0  0  0  0  0  # atno 5490 bound_to 585 

> <Gold.Score>
     Fitness  S(hb_ext) S(vdw_ext)  S(hb_int)    S(int)      intcor
     39.00      12.46      20.26       0.00      -1.31      -0.76

> <Gold.Goldscore.Fitness>
39.0019

> <Gold.Goldscore.Internal.Vdw>
-1.6335

> <Gold.Goldscore.Internal.Torsion>
-0.4446

> <Gold.Goldscore.External.Vdw>
20.2591

> <Gold.Goldscore.Internal.HBond>
0.0000

> <Gold.Goldscore.External.HBond>
12.4588

> <Gold.Goldscore.Internal.Correction>
-0.7650

> <Gold.Goldscore.Hbonds>
donor molecule, donor type, donor heavy atom, donor atom, acceptor molecule, acceptor atom, score
      P1  H  2534  2545       L1    17  0.97
      P1  H   580   587       L1     9  1.00
      L1  H    10    23       P1  2502  0.77

> <Gold.Goldscore.Internal.Vdw.Weighted>
-1.6335

> <Gold.Goldscore.Internal.Torsion.Weighted>
-0.4446

> <Gold.Goldscore.External.Vdw.Weighted>
27.8563

> <Gold.Goldscore.Internal.HBond.Weighted>
0.0000

> <Gold.Goldscore.External.HBond.Weighted>
12.4588

> <Gold.Goldscore.Internal.Correction.Weighted>
-0.7650

> <Gold.Rescore>
     Score     S(PLP)   S(hbond)     S(cho)   S(metal)  DE(clash)   DE(tors)     intcor
     39.91     -33.36       2.99       0.00       0.00       1.55       0.44       ----

> <Gold.PLP.Fitness>
39.9141

> <Gold.PLP.PLP>
-33.3595

> <Gold.PLP.part.hbond>
-3.8164

> <Gold.PLP.part.metal>
0.0000

> <Gold.PLP.part.buried>
-2.1705

> <Gold.PLP.part.nonpolar>
-27.9679

> <Gold.PLP.part.repulsive>
1.6110

> <Gold.PLP.ligand.clash>
1.5468

> <Gold.PLP.ligand.torsion>
0.4373

> <Gold.PLP.Chemscore.Hbond>
2.9920

> <Gold.PLP.Chemscore.CHOScore>
0.0000

> <Gold.PLP.Chemscore.Metal>
0.0000

> <Gold.Chemscore.Hbonds>
donor molecule, donor type, donor heavy atom, donor atom, acceptor molecule, acceptor atom, score
      L1  H    10    23       P1  2502  0.98
      P1  H  2534  2545       L1    17  0.83
      P1  H   580   587       L1     9  0.84

> <Gold.PLP.Chemscore.Internal.Correction>
   9.000000E+99

#       Name:                CT1002167954
#       Creating user name   hitesit
#       Creation time:       Sun Apr 16 22:50:43 2023


#       File generated by GOLD software.
#

@<TRIPOS>MOLECULE
CT1002167954|ligand_prepared|mol2|1|dock5
    29    30     1
SMALL
NO_CHARGES


@<TRIPOS>ATOM
      1 C1          20.8438  -7.9469  -1.0861 C.3            1 RES1               0.0000
      2 C2          21.4091  -8.6848  -2.3168 C.ar           1 RES1               0.0000
      3 C3          21.2241  -6.4788  -1.2547 C.2            1 RES1               0.0000
      4 C4          19.3410  -8.2044  -1.0873 C.2            1 RES1               0.0000
      5 C5          21.4137  -8.4504   0.2605 C.3            1 RES1               0.0000
      6 C6          21.9166  -9.9751  -2.1981 C.ar           1 RES1               0.0000
      7 C7          21.4273  -8.0902  -3.5757 C.ar           1 RES1               0.0000
      8 N8          20.2357  -5.6062  -1.6032 N.am           1 RES1               0.0000
      9 O9          22.3811  -6.0992  -1.1226 O.2            1 RES1               0.0000
     10 N10         18.5066  -7.1359  -1.2867 N.am           1 RES1               0.0000
     11 O11         18.8724  -9.3257  -0.9341 O.2            1 RES1               0.0000
     12 C12         21.0892  -7.5469   1.4397 C.3            1 RES1               0.0000
     13 C13         22.4214 -10.6480  -3.2985 C.ar           1 RES1               0.0000
     14 C14         21.9328  -8.7648  -4.6748 C.ar           1 RES1               0.0000
     15 C15         18.8867  -5.8535  -1.5753 C.2            1 RES1               0.0000
     16 C16         22.4294 -10.0435  -4.5375 C.ar           1 RES1               0.0000
     17 O17         18.0766  -4.9578  -1.7960 O.2            1 RES1               0.0000
     18 H18         21.0123  -9.4513   0.4616 H              1 RES1               0.0000
     19 H19         22.5036  -8.5377   0.1721 H              1 RES1               0.0000
     20 H20         21.9209 -10.4660  -1.2306 H              1 RES1               0.0000
     21 H21         21.0428  -7.0845  -3.7072 H              1 RES1               0.0000
     22 H22         20.5264  -4.6844  -1.9133 H              1 RES1               0.0000
     23 H23         17.5098  -7.3128  -1.2130 H              1 RES1               0.0000
     24 H24         21.5122  -7.9460   2.3593 H              1 RES1               0.0000
     25 H25         21.4954  -6.5495   1.2848 H              1 RES1               0.0000
     26 H26         20.0130  -7.4577   1.5726 H              1 RES1               0.0000
     27 H27         22.8124 -11.6537  -3.1849 H              1 RES1               0.0000
     28 H28         21.9377  -8.2849  -5.6479 H              1 RES1               0.0000
     29 H29         22.8246 -10.5709  -5.3994 H              1 RES1               0.0000
@<TRIPOS>BOND
    1    1    2 1     
    2    1    3 1     
    3    1    4 1     
    4    1    5 1     
    5    2    6 ar    
    6    2    7 ar    
    7    3    8 1     
    8    3    9 2     
    9    4   10 1     
   10    4   11 2     
   11    5   12 1     
   12    5   18 1     
   13    5   19 1     
   14    6   13 ar    
   15    6   20 1     
   16    7   14 ar    
   17    7   21 1     
   18    8   15 1     
   19    8   22 1     
   20   10   15 1     
   21   10   23 1     
   22   12   24 1     
   23   12   25 1     
   24   12   26 1     
   25   13   16 ar    
   26   13   27 1     
   27   14   16 ar    
   28   14   28 1     
   29   15   17 2     
   30   16   29 1     
@<TRIPOS>SUBSTRUCTURE
      1 RES1           1
@<TRIPOS>SET
DONOR_HYDROGENS      STATIC     ATOMS    <user>   **** ""
2 22 23
ATOM$RED        STATIC     ATOMS    COLORGROUP SYSTEM
2 22 23
@<TRIPOS>COMMENT
> <Gold.Version>
2022.3.0

> <Gold.Id.Protein>
unknown|3oxt_clean|pdb

> <Gold.Protein.RotatedTorsions>
[ 3607 3598 3597 3595 ] final -132.18 input   60.01 | X-H torsion
[ 3527 3518 3517 3515 ] final  -58.91 input   60.00 | X-H torsion
[ 3788 3779 3778 3776 ] final   44.82 input   59.99 | X-H torsion
[ 3080 3073 3071 3068 ] final  -38.51 input   60.03 | X-H torsion
[ 5059 5050 5049 5047 ] final  121.10 input   60.00 | X-H torsion
[ 2545 2534 2533 2532 ] final -163.79 input   59.97 | X-H torsion
[  570  565  563  560 ] final   59.13 input   59.99 | X-H torsion
[ 1886 1881 1880 1877 ] final  -95.11 input   59.97 | X-H torsion
[ 3130 3121 3120 3118 ] final -103.26 input   60.01 | X-H torsion
[  590  585  584  581 ] final  -85.57 input   60.02 | X-H torsion

> <Gold.Protein.ActiveResidues>
 LEU49   GLY50   THR51   GLY52   SER53   PHE54   LEU82   LYS83   GLN84   HIS87  
 GLY126  GLU127  MET128  PHE129  SER130  HIS131  LEU132  ARG133  ARG134  ILE135 
 GLY136  ARG137  ARG165  ASP166  LEU167  LYS168  PRO169  GLU170  ASN171  LEU173 
 ASP184  GLY186  PHE187  TPO197  LEU198  CYS199  GLY200  THR201  PRO202  GLU203 
 TYR204  LEU205  ILE209  ILE210  VAL226  LEU227  TYR229  GLU230  ALA233  GLY234 
 TYR235  PRO236  PRO237  PHE238  PHE239  ALA240  ASP241  GLN242  PRO243  ILE244 
 GLN245  ILE246  TYR247  LYS249  ARG256  PHE257  PRO258  SER259  ASN326  PHE327 
 ASP328  ASP329  TYR330 

> <Gold.Protein.RotatedAtoms>
   20.5623  -12.6377    5.5528 H   0  0  0  0  0  0  0  0  0  0  0  0  # atno 570  bound_to 565 
   17.7759  -10.9409   -1.3422 H   0  0  0  0  0  0  0  0  0  0  0  0  # atno 590  bound_to 585 
   26.7056   -5.3872   12.6713 H   0  0  0  0  0  0  0  0  0  0  0  0  # atno 1886 bound_to 1881
   20.1040   -4.9988    0.7166 H   0  0  0  0  0  0  0  0  0  0  0  0  # atno 2545 bound_to 2534
   19.4996   -3.7236    1.5870 H   0  0  0  0  0  0  0  0  0  0  0  0  # atno 2546 bound_to 2534
   19.5895   -3.6318   -0.0658 H   0  0  0  0  0  0  0  0  0  0  0  0  # atno 2547 bound_to 2534
   17.9599   -2.9921   -0.9544 H   0  0  0  0  0  0  0  0  0  0  0  0  # atno 3080 bound_to 3073
   21.9426    5.2561    3.7243 H   0  0  0  0  0  0  0  0  0  0  0  0  # atno 3130 bound_to 3121
   16.2027   12.7229    7.3752 H   0  0  0  0  0  0  0  0  0  0  0  0  # atno 3527 bound_to 3518
   17.5136   13.6163   12.2148 H   0  0  0  0  0  0  0  0  0  0  0  0  # atno 3607 bound_to 3598
   10.2610   -0.6003   -1.9415 H   0  0  0  0  0  0  0  0  0  0  0  0  # atno 3788 bound_to 3779
   23.6367  -10.0505    8.3400 H   0  0  0  0  0  0  0  0  0  0  0  0  # atno 5059 bound_to 5050
   15.9383   13.3988   12.5596 LP  0  0  0  0  0  0  0  0  0  0  0  0  # atno 5367 bound_to 3598
   16.4041   13.7288   11.0297 LP  0  0  0  0  0  0  0  0  0  0  0  0  # atno 5368 bound_to 3598
   16.7304   14.2477    7.1607 LP  0  0  0  0  0  0  0  0  0  0  0  0  # atno 5371 bound_to 3518
   17.2210   13.3861    8.4582 LP  0  0  0  0  0  0  0  0  0  0  0  0  # atno 5372 bound_to 3518
   10.1516   -0.7665   -3.5565 LP  0  0  0  0  0  0  0  0  0  0  0  0  # atno 5429 bound_to 3779
    8.9236   -1.2550   -2.5975 LP  0  0  0  0  0  0  0  0  0  0  0  0  # atno 5430 bound_to 3779
   19.0102   -2.4660    0.1715 LP  0  0  0  0  0  0  0  0  0  0  0  0  # atno 5433 bound_to 3073
   19.1914   -2.0215   -1.3893 LP  0  0  0  0  0  0  0  0  0  0  0  0  # atno 5434 bound_to 3073
   24.8701   -9.7515    9.3577 LP  0  0  0  0  0  0  0  0  0  0  0  0  # atno 5443 bound_to 5050
   23.3277   -9.6013    9.8727 LP  0  0  0  0  0  0  0  0  0  0  0  0  # atno 5444 bound_to 5050
   21.5691  -12.7630    6.8252 LP  0  0  0  0  0  0  0  0  0  0  0  0  # atno 5447 bound_to 565 
   20.2532  -13.7247    6.7238 LP  0  0  0  0  0  0  0  0  0  0  0  0  # atno 5448 bound_to 565 
   27.9965   -5.3567   11.6811 LP  0  0  0  0  0  0  0  0  0  0  0  0  # atno 5453 bound_to 1881
   26.6502   -4.5154   11.2984 LP  0  0  0  0  0  0  0  0  0  0  0  0  # atno 5454 bound_to 1881
   23.0664    4.1718    3.2662 LP  0  0  0  0  0  0  0  0  0  0  0  0  # atno 5481 bound_to 3121
   21.8034    3.7026    4.1889 LP  0  0  0  0  0  0  0  0  0  0  0  0  # atno 5482 bound_to 3121
   16.9754  -11.4880   -2.6495 LP  0  0  0  0  0  0  0  0  0  0  0  0  # atno 5489 bound_to 585 
   18.2724  -12.3025   -2.0829 LP  0  0  0  0  0  0  0  0  0  0  0  0  # atno 5490 bound_to 585 

> <Gold.Score>
     Fitness  S(hb_ext) S(vdw_ext)  S(hb_int)    S(int)      intcor
     33.97       7.89      19.44       0.00      -0.65      -0.76

> <Gold.Goldscore.Fitness>
33.9706

> <Gold.Goldscore.Internal.Vdw>
-0.8167

> <Gold.Goldscore.Internal.Torsion>
-0.6030

> <Gold.Goldscore.External.Vdw>
19.4403

> <Gold.Goldscore.Internal.HBond>
0.0000

> <Gold.Goldscore.External.HBond>
7.8949

> <Gold.Goldscore.Internal.Correction>
-0.7650

> <Gold.Goldscore.Hbonds>
donor molecule, donor type, donor heavy atom, donor atom, acceptor molecule, acceptor atom, score
      P1  H  3073  3080       L1    17  0.16
      P1  H  2583  2589       L1     9  1.00
      P1  H   580   587       L1    11  0.41
      P1  H   585   590       L1    11  0.41
      L1  H     8    22       P1  2501  0.65

> <Gold.Goldscore.Internal.Vdw.Weighted>
-0.8167

> <Gold.Goldscore.Internal.Torsion.Weighted>
-0.6030

> <Gold.Goldscore.External.Vdw.Weighted>
26.7304

> <Gold.Goldscore.Internal.HBond.Weighted>
0.0000

> <Gold.Goldscore.External.HBond.Weighted>
7.8949

> <Gold.Goldscore.Internal.Correction.Weighted>
-0.7650

> <Gold.Rescore>
     Score     S(PLP)   S(hbond)     S(cho)   S(metal)  DE(clash)   DE(tors)     intcor
     33.57     -29.17       1.75       0.00       0.00       0.00       0.43       ----

> <Gold.PLP.Fitness>
33.5655

> <Gold.PLP.PLP>
-29.1719

> <Gold.PLP.part.hbond>
-2.6724

> <Gold.PLP.part.metal>
0.0000

> <Gold.PLP.part.buried>
-6.3828

> <Gold.PLP.part.nonpolar>
-23.2980

> <Gold.PLP.part.repulsive>
3.0570

> <Gold.PLP.ligand.clash>
0.0000

> <Gold.PLP.ligand.torsion>
0.4295

> <Gold.PLP.Chemscore.Hbond>
1.7509

> <Gold.PLP.Chemscore.CHOScore>
0.0000

> <Gold.PLP.Chemscore.Metal>
0.0000

> <Gold.Chemscore.Hbonds>
donor molecule, donor type, donor heavy atom, donor atom, acceptor molecule, acceptor atom, score
      L1  H     8    22       P1  2501  0.31
      P1  H  3073  3080       L1    17  0.74
      P1  H  2583  2589       L1     9  0.99
      P1  H   585   590       L1    11  1.00

> <Gold.PLP.Chemscore.Internal.Correction>
   9.000000E+99

#       Name:                CT1002167954
#       Creating user name   hitesit
#       Creation time:       Sun Apr 16 22:50:46 2023


#       File generated by GOLD software.
#

@<TRIPOS>MOLECULE
CT1002167954|ligand_prepared|mol2|1|dock7
    29    30     1
SMALL
NO_CHARGES


@<TRIPOS>ATOM
      1 C1          21.3984  -8.7874  -0.1192 C.3            1 RES1               0.0000
      2 C2          22.2766  -9.8784  -0.7652 C.ar           1 RES1               0.0000
      3 C3          21.9678  -7.4495  -0.5819 C.2            1 RES1               0.0000
      4 C4          19.9728  -9.0531  -0.5901 C.2            1 RES1               0.0000
      5 C5          21.4039  -8.8152   1.4270 C.3            1 RES1               0.0000
      6 C6          22.0528 -10.2831  -2.0778 C.ar           1 RES1               0.0000
      7 C7          23.3140 -10.4864  -0.0633 C.ar           1 RES1               0.0000
      8 N8          21.2629  -6.7529  -1.5188 N.am           1 RES1               0.0000
      9 O9          23.0389  -7.0308  -0.1603 O.2            1 RES1               0.0000
     10 N10         19.3799  -8.1204  -1.4003 N.am           1 RES1               0.0000
     11 O11         19.3635 -10.0695  -0.2803 O.2            1 RES1               0.0000
     12 C12         20.3371  -7.9357   2.0598 C.3            1 RES1               0.0000
     13 C13         22.8395 -11.2581  -2.6684 C.ar           1 RES1               0.0000
     14 C14         24.0994 -11.4615  -0.6557 C.ar           1 RES1               0.0000
     15 C15         19.9713  -6.9972  -1.9110 C.2            1 RES1               0.0000
     16 C16         23.8635 -11.8476  -1.9580 C.ar           1 RES1               0.0000
     17 O17         19.3901  -6.2346  -2.6776 O.2            1 RES1               0.0000
     18 H18         21.2537  -9.8489   1.7621 H              1 RES1               0.0000
     19 H19         22.3885  -8.4872   1.7826 H              1 RES1               0.0000
     20 H20         21.2500  -9.8323  -2.6517 H              1 RES1               0.0000
     21 H21         23.5172 -10.1993   0.9628 H              1 RES1               0.0000
     22 H22         21.7403  -5.9789  -1.9697 H              1 RES1               0.0000
     23 H23         18.4075  -8.2780  -1.6453 H              1 RES1               0.0000
     24 H24         20.3849  -7.9918   3.1453 H              1 RES1               0.0000
     25 H25         20.4713  -6.8961   1.7680 H              1 RES1               0.0000
     26 H26         19.3432  -8.2498   1.7476 H              1 RES1               0.0000
     27 H27         22.6489 -11.5595  -3.6931 H              1 RES1               0.0000
     28 H28         24.9038 -11.9232  -0.0927 H              1 RES1               0.0000
     29 H29         24.4798 -12.6111  -2.4210 H              1 RES1               0.0000
@<TRIPOS>BOND
    1    1    2 1     
    2    1    3 1     
    3    1    4 1     
    4    1    5 1     
    5    2    6 ar    
    6    2    7 ar    
    7    3    8 1     
    8    3    9 2     
    9    4   10 1     
   10    4   11 2     
   11    5   12 1     
   12    5   18 1     
   13    5   19 1     
   14    6   13 ar    
   15    6   20 1     
   16    7   14 ar    
   17    7   21 1     
   18    8   15 1     
   19    8   22 1     
   20   10   15 1     
   21   10   23 1     
   22   12   24 1     
   23   12   25 1     
   24   12   26 1     
   25   13   16 ar    
   26   13   27 1     
   27   14   16 ar    
   28   14   28 1     
   29   15   17 2     
   30   16   29 1     
@<TRIPOS>SUBSTRUCTURE
      1 RES1           1
@<TRIPOS>SET
DONOR_HYDROGENS      STATIC     ATOMS    <user>   **** ""
2 22 23
ATOM$RED        STATIC     ATOMS    COLORGROUP SYSTEM
2 22 23
@<TRIPOS>COMMENT
> <Gold.Version>
2022.3.0

> <Gold.Id.Protein>
unknown|3oxt_clean|pdb

> <Gold.Protein.RotatedTorsions>
[ 3607 3598 3597 3595 ] final  140.31 input   60.01 | X-H torsion
[ 3527 3518 3517 3515 ] final  -14.50 input   60.00 | X-H torsion
[ 3788 3779 3778 3776 ] final   37.66 input   59.99 | X-H torsion
[ 3080 3073 3071 3068 ] final  -46.49 input   60.03 | X-H torsion
[ 5059 5050 5049 5047 ] final  -64.19 input   60.00 | X-H torsion
[ 2545 2534 2533 2532 ] final   10.50 input   59.97 | X-H torsion
[  570  565  563  560 ] final   83.75 input   59.99 | X-H torsion
[ 1886 1881 1880 1877 ] final  -19.27 input   59.97 | X-H torsion
[ 3130 3121 3120 3118 ] final -107.32 input   60.01 | X-H torsion
[  590  585  584  581 ] final  -50.62 input   60.02 | X-H torsion

> <Gold.Protein.ActiveResidues>
 LEU49   GLY50   THR51   GLY52   SER53   PHE54   LEU82   LYS83   GLN84   HIS87  
 GLY126  GLU127  MET128  PHE129  SER130  HIS131  LEU132  ARG133  ARG134  ILE135 
 GLY136  ARG137  ARG165  ASP166  LEU167  LYS168  PRO169  GLU170  ASN171  LEU173 
 ASP184  GLY186  PHE187  TPO197  LEU198  CYS199  GLY200  THR201  PRO202  GLU203 
 TYR204  LEU205  ILE209  ILE210  VAL226  LEU227  TYR229  GLU230  ALA233  GLY234 
 TYR235  PRO236  PRO237  PHE238  PHE239  ALA240  ASP241  GLN242  PRO243  ILE244 
 GLN245  ILE246  TYR247  LYS249  ARG256  PHE257  PRO258  SER259  ASN326  PHE327 
 ASP328  ASP329  TYR330 

> <Gold.Protein.RotatedAtoms>
   20.2691  -12.9042    5.6023 H   0  0  0  0  0  0  0  0  0  0  0  0  # atno 570  bound_to 565 
   18.1836  -11.3231   -1.2788 H   0  0  0  0  0  0  0  0  0  0  0  0  # atno 590  bound_to 585 
   26.2681   -4.6918   11.8656 H   0  0  0  0  0  0  0  0  0  0  0  0  # atno 1886 bound_to 1881
   19.3543   -3.2471    0.8698 H   0  0  0  0  0  0  0  0  0  0  0  0  # atno 2545 bound_to 2534
   19.9318   -4.4317   -0.1362 H   0  0  0  0  0  0  0  0  0  0  0  0  # atno 2546 bound_to 2534
   19.9067   -4.6749    1.5035 H   0  0  0  0  0  0  0  0  0  0  0  0  # atno 2547 bound_to 2534
   17.9528   -3.0226   -0.8279 H   0  0  0  0  0  0  0  0  0  0  0  0  # atno 3080 bound_to 3073
   21.9947    5.2730    3.6869 H   0  0  0  0  0  0  0  0  0  0  0  0  # atno 3130 bound_to 3121
   16.5470   12.5848    7.9785 H   0  0  0  0  0  0  0  0  0  0  0  0  # atno 3527 bound_to 3518
   16.3930   13.3923   12.8235 H   0  0  0  0  0  0  0  0  0  0  0  0  # atno 3607 bound_to 3598
   10.3450   -0.5675   -2.0160 H   0  0  0  0  0  0  0  0  0  0  0  0  # atno 3788 bound_to 3779
   24.1685   -9.5488   10.0601 H   0  0  0  0  0  0  0  0  0  0  0  0  # atno 5059 bound_to 5050
   15.9475   13.6376   11.2778 LP  0  0  0  0  0  0  0  0  0  0  0  0  # atno 5367 bound_to 3598
   17.5234   13.7157   11.6986 LP  0  0  0  0  0  0  0  0  0  0  0  0  # atno 5368 bound_to 3598
   16.3127   13.7506    6.8670 LP  0  0  0  0  0  0  0  0  0  0  0  0  # atno 5371 bound_to 3518
   17.2922   14.0223    8.1450 LP  0  0  0  0  0  0  0  0  0  0  0  0  # atno 5372 bound_to 3518
   10.0522   -0.8144   -3.5974 LP  0  0  0  0  0  0  0  0  0  0  0  0  # atno 5429 bound_to 3779
    8.9384   -1.2401   -2.4816 LP  0  0  0  0  0  0  0  0  0  0  0  0  # atno 5430 bound_to 3779
   19.1065   -2.3880    0.1281 LP  0  0  0  0  0  0  0  0  0  0  0  0  # atno 5433 bound_to 3073
   19.1023   -2.0688   -1.4733 LP  0  0  0  0  0  0  0  0  0  0  0  0  # atno 5434 bound_to 3073
   23.0382   -9.8744    8.9364 LP  0  0  0  0  0  0  0  0  0  0  0  0  # atno 5443 bound_to 5050
   24.6235   -9.9841    8.5602 LP  0  0  0  0  0  0  0  0  0  0  0  0  # atno 5444 bound_to 5050
   21.5722  -12.5256    6.5008 LP  0  0  0  0  0  0  0  0  0  0  0  0  # atno 5447 bound_to 565 
   20.5452  -13.6937    6.9983 LP  0  0  0  0  0  0  0  0  0  0  0  0  # atno 5448 bound_to 565 
   27.3603   -5.6440   12.6060 LP  0  0  0  0  0  0  0  0  0  0  0  0  # atno 5453 bound_to 1881
   27.7270   -4.9283   11.1848 LP  0  0  0  0  0  0  0  0  0  0  0  0  # atno 5454 bound_to 1881
   23.0588    4.1086    3.2863 LP  0  0  0  0  0  0  0  0  0  0  0  0  # atno 5481 bound_to 3121
   21.7586    3.7489    4.2065 LP  0  0  0  0  0  0  0  0  0  0  0  0  # atno 5482 bound_to 3121
   16.9381  -11.0516   -2.2906 LP  0  0  0  0  0  0  0  0  0  0  0  0  # atno 5489 bound_to 585 
   17.8993  -12.3541   -2.5057 LP  0  0  0  0  0  0  0  0  0  0  0  0  # atno 5490 bound_to 585 

> <Gold.Score>
     Fitness  S(hb_ext) S(vdw_ext)  S(hb_int)    S(int)      intcor
     33.91       9.68      17.73       0.00      -0.16      -0.76

> <Gold.Goldscore.Fitness>
33.9068

> <Gold.Goldscore.Internal.Vdw>
-0.3436

> <Gold.Goldscore.Internal.Torsion>
-0.5739

> <Gold.Goldscore.External.Vdw>
17.7334

> <Gold.Goldscore.Internal.HBond>
0.0000

> <Gold.Goldscore.External.HBond>
9.6823

> <Gold.Goldscore.Internal.Correction>
-0.7585

> <Gold.Goldscore.Hbonds>
donor molecule, donor type, donor heavy atom, donor atom, acceptor molecule, acceptor atom, score
      P1  H  2534  2546       L1    17  0.03
      P1  H   580   587       L1    11  0.88
      P1  H   585   590       L1    11  0.90
      L1  H     8    22       P1  2502  0.99

> <Gold.Goldscore.Internal.Vdw.Weighted>
-0.3436

> <Gold.Goldscore.Internal.Torsion.Weighted>
-0.5739

> <Gold.Goldscore.External.Vdw.Weighted>
24.3835

> <Gold.Goldscore.Internal.HBond.Weighted>
0.0000

> <Gold.Goldscore.External.HBond.Weighted>
9.6823

> <Gold.Goldscore.Internal.Correction.Weighted>
-0.7585

> <Gold.Rescore>
     Score     S(PLP)   S(hbond)     S(cho)   S(metal)  DE(clash)   DE(tors)     intcor
     28.68     -22.57       2.63       0.00       0.00       0.00       0.90       ----

> <Gold.PLP.Fitness>
28.6771

> <Gold.PLP.PLP>
-22.5727

> <Gold.PLP.part.hbond>
-2.7558

> <Gold.PLP.part.metal>
0.0000

> <Gold.PLP.part.buried>
-5.5423

> <Gold.PLP.part.nonpolar>
-17.6286

> <Gold.PLP.part.repulsive>
1.5360

> <Gold.PLP.ligand.clash>
0.0000

> <Gold.PLP.ligand.torsion>
0.8984

> <Gold.PLP.Chemscore.Hbond>
2.6338

> <Gold.PLP.Chemscore.CHOScore>
0.0000

> <Gold.PLP.Chemscore.Metal>
0.0000

> <Gold.Chemscore.Hbonds>
donor molecule, donor type, donor heavy atom, donor atom, acceptor molecule, acceptor atom, score
      L1  H     8    22       P1  2502  1.00
      P1  H   580   587       L1    11  1.00
      P1  H   585   590       L1    11  1.00

> <Gold.PLP.Chemscore.Internal.Correction>
   9.000000E+99

#       Name:                CT1002167954
#       Creating user name   hitesit
#       Creation time:       Sun Apr 16 22:50:42 2023


#       File generated by GOLD software.
#

@<TRIPOS>MOLECULE
CT1002167954|ligand_prepared|mol2|1|dock4
    29    30     1
SMALL
NO_CHARGES


@<TRIPOS>ATOM
      1 C1          21.0512  -8.6517  -0.0085 C.3            1 RES1               0.0000
      2 C2          22.2071  -9.6700   0.0663 C.ar           1 RES1               0.0000
      3 C3          21.6573  -7.3533  -0.5329 C.2            1 RES1               0.0000
      4 C4          20.0016  -9.2646  -0.9290 C.2            1 RES1               0.0000
      5 C5          20.3815  -8.3653   1.3557 C.3            1 RES1               0.0000
      6 C6          22.8107  -9.9686   1.2842 C.ar           1 RES1               0.0000
      7 C7          22.6781 -10.3197  -1.0715 C.ar           1 RES1               0.0000
      8 N8          21.3808  -7.0021  -1.8214 N.am           1 RES1               0.0000
      9 O9          22.3988  -6.6683   0.1608 O.2            1 RES1               0.0000
     10 N10         19.7511  -8.6401  -2.1227 N.am           1 RES1               0.0000
     11 O11         19.4011 -10.2920  -0.6387 O.2            1 RES1               0.0000
     12 C12         19.0831  -7.5812   1.2488 C.3            1 RES1               0.0000
     13 C13         23.8457 -10.8857   1.3624 C.ar           1 RES1               0.0000
     14 C14         23.7135 -11.2363  -0.9911 C.ar           1 RES1               0.0000
     15 C15         20.4151  -7.5539  -2.6242 C.2            1 RES1               0.0000
     16 C16         24.2974 -11.5204   0.2250 C.ar           1 RES1               0.0000
     17 O17         20.1695  -7.0820  -3.7306 O.2            1 RES1               0.0000
     18 H18         20.1774  -9.3199   1.8562 H              1 RES1               0.0000
     19 H19         21.0837  -7.8016   1.9824 H              1 RES1               0.0000
     20 H20         22.4702  -9.4773   2.1896 H              1 RES1               0.0000
     21 H21         22.2345 -10.1111  -2.0391 H              1 RES1               0.0000
     22 H22         21.9442  -6.2606  -2.2253 H              1 RES1               0.0000
     23 H23         19.0000  -9.0201  -2.6900 H              1 RES1               0.0000
     24 H24         18.6551  -7.4076   2.2338 H              1 RES1               0.0000
     25 H25         19.2535  -6.6151   0.7782 H              1 RES1               0.0000
     26 H26         18.3525  -8.1244   0.6528 H              1 RES1               0.0000
     27 H27         24.3028 -11.1047   2.3217 H              1 RES1               0.0000
     28 H28         24.0662 -11.7330  -1.8890 H              1 RES1               0.0000
     29 H29         25.1080 -12.2391   0.2865 H              1 RES1               0.0000
@<TRIPOS>BOND
    1    1    2 1     
    2    1    3 1     
    3    1    4 1     
    4    1    5 1     
    5    2    6 ar    
    6    2    7 ar    
    7    3    8 1     
    8    3    9 2     
    9    4   10 1     
   10    4   11 2     
   11    5   12 1     
   12    5   18 1     
   13    5   19 1     
   14    6   13 ar    
   15    6   20 1     
   16    7   14 ar    
   17    7   21 1     
   18    8   15 1     
   19    8   22 1     
   20   10   15 1     
   21   10   23 1     
   22   12   24 1     
   23   12   25 1     
   24   12   26 1     
   25   13   16 ar    
   26   13   27 1     
   27   14   16 ar    
   28   14   28 1     
   29   15   17 2     
   30   16   29 1     
@<TRIPOS>SUBSTRUCTURE
      1 RES1           1
@<TRIPOS>SET
DONOR_HYDROGENS      STATIC     ATOMS    <user>   **** ""
2 22 23
ATOM$RED        STATIC     ATOMS    COLORGROUP SYSTEM
2 22 23
@<TRIPOS>COMMENT
> <Gold.Version>
2022.3.0

> <Gold.Id.Protein>
unknown|3oxt_clean|pdb

> <Gold.Protein.RotatedTorsions>
[ 3607 3598 3597 3595 ] final   68.70 input   60.01 | X-H torsion
[ 3527 3518 3517 3515 ] final  -30.86 input   60.00 | X-H torsion
[ 3788 3779 3778 3776 ] final  -99.31 input   59.99 | X-H torsion
[ 3080 3073 3071 3068 ] final -106.16 input   60.03 | X-H torsion
[ 5059 5050 5049 5047 ] final  -94.15 input   60.00 | X-H torsion
[ 2545 2534 2533 2532 ] final -102.84 input   59.97 | X-H torsion
[  570  565  563  560 ] final    4.50 input   59.99 | X-H torsion
[ 1886 1881 1880 1877 ] final -165.46 input   59.97 | X-H torsion
[ 3130 3121 3120 3118 ] final -158.65 input   60.01 | X-H torsion
[  590  585  584  581 ] final  -59.79 input   60.02 | X-H torsion

> <Gold.Protein.ActiveResidues>
 LEU49   GLY50   THR51   GLY52   SER53   PHE54   LEU82   LYS83   GLN84   HIS87  
 GLY126  GLU127  MET128  PHE129  SER130  HIS131  LEU132  ARG133  ARG134  ILE135 
 GLY136  ARG137  ARG165  ASP166  LEU167  LYS168  PRO169  GLU170  ASN171  LEU173 
 ASP184  GLY186  PHE187  TPO197  LEU198  CYS199  GLY200  THR201  PRO202  GLU203 
 TYR204  LEU205  ILE209  ILE210  VAL226  LEU227  TYR229  GLU230  ALA233  GLY234 
 TYR235  PRO236  PRO237  PHE238  PHE239  ALA240  ASP241  GLN242  PRO243  ILE244 
 GLN245  ILE246  TYR247  LYS249  ARG256  PHE257  PRO258  SER259  ASN326  PHE327 
 ASP328  ASP329  TYR330 

> <Gold.Protein.RotatedAtoms>
   21.2758  -12.3583    5.9422 H   0  0  0  0  0  0  0  0  0  0  0  0  # atno 570  bound_to 565 
   18.0893  -11.2074   -1.2686 H   0  0  0  0  0  0  0  0  0  0  0  0  # atno 590  bound_to 585 
   27.7057   -5.6413   12.3568 H   0  0  0  0  0  0  0  0  0  0  0  0  # atno 1886 bound_to 1881
   19.8669   -4.5925    1.5657 H   0  0  0  0  0  0  0  0  0  0  0  0  # atno 2545 bound_to 2534
   19.3586   -3.2361    0.7590 H   0  0  0  0  0  0  0  0  0  0  0  0  # atno 2546 bound_to 2534
   19.9674   -4.5253   -0.0868 H   0  0  0  0  0  0  0  0  0  0  0  0  # atno 2547 bound_to 2534
   18.3335   -2.9184    0.0158 H   0  0  0  0  0  0  0  0  0  0  0  0  # atno 3080 bound_to 3073
   22.6798    5.0985    3.2894 H   0  0  0  0  0  0  0  0  0  0  0  0  # atno 3130 bound_to 3121
   16.3956   12.5759    7.7591 H   0  0  0  0  0  0  0  0  0  0  0  0  # atno 3527 bound_to 3518
   15.6917   13.4781   11.9863 H   0  0  0  0  0  0  0  0  0  0  0  0  # atno 3607 bound_to 3598
    9.8012   -0.9274   -3.6310 H   0  0  0  0  0  0  0  0  0  0  0  0  # atno 3788 bound_to 3779
   23.6851   -9.5513   10.0513 H   0  0  0  0  0  0  0  0  0  0  0  0  # atno 5059 bound_to 5050
   17.0287   13.7762   11.1080 LP  0  0  0  0  0  0  0  0  0  0  0  0  # atno 5367 bound_to 3598
   17.1484   13.4906   12.7114 LP  0  0  0  0  0  0  0  0  0  0  0  0  # atno 5368 bound_to 3598
   16.4508   13.9731    6.9258 LP  0  0  0  0  0  0  0  0  0  0  0  0  # atno 5371 bound_to 3518
   17.3065   13.8087    8.3069 LP  0  0  0  0  0  0  0  0  0  0  0  0  # atno 5372 bound_to 3518
    9.0253   -1.1827   -2.2238 LP  0  0  0  0  0  0  0  0  0  0  0  0  # atno 5429 bound_to 3779
   10.5130   -0.5094   -2.2288 LP  0  0  0  0  0  0  0  0  0  0  0  0  # atno 5430 bound_to 3779
   19.4896   -1.9628   -0.6151 LP  0  0  0  0  0  0  0  0  0  0  0  0  # atno 5433 bound_to 3073
   18.3357   -2.5989   -1.5798 LP  0  0  0  0  0  0  0  0  0  0  0  0  # atno 5434 bound_to 3073
   23.2899   -9.9912    8.5358 LP  0  0  0  0  0  0  0  0  0  0  0  0  # atno 5443 bound_to 5050
   24.8591   -9.8647    8.9697 LP  0  0  0  0  0  0  0  0  0  0  0  0  # atno 5444 bound_to 5050
   21.0985  -13.3938    7.1851 LP  0  0  0  0  0  0  0  0  0  0  0  0  # atno 5447 bound_to 565 
   20.0055  -13.3751    5.9720 LP  0  0  0  0  0  0  0  0  0  0  0  0  # atno 5448 bound_to 565 
   27.3841   -4.7018   11.0676 LP  0  0  0  0  0  0  0  0  0  0  0  0  # atno 5453 bound_to 1881
   26.2555   -4.9143   12.2285 LP  0  0  0  0  0  0  0  0  0  0  0  0  # atno 5454 bound_to 1881
   22.6569    3.5201    3.6854 LP  0  0  0  0  0  0  0  0  0  0  0  0  # atno 5481 bound_to 3121
   21.4704    4.5131    4.2077 LP  0  0  0  0  0  0  0  0  0  0  0  0  # atno 5482 bound_to 3121
   16.9209  -11.1534   -2.4004 LP  0  0  0  0  0  0  0  0  0  0  0  0  # atno 5489 bound_to 585 
   18.0114  -12.3689   -2.4061 LP  0  0  0  0  0  0  0  0  0  0  0  0  # atno 5490 bound_to 585 

> <Gold.Score>
     Fitness  S(hb_ext) S(vdw_ext)  S(hb_int)    S(int)      intcor
     33.31      10.05      17.34       0.00      -0.57      -0.76

> <Gold.Goldscore.Fitness>
33.3138

> <Gold.Goldscore.Internal.Vdw>
-0.7744

> <Gold.Goldscore.Internal.Torsion>
-0.5610

> <Gold.Goldscore.External.Vdw>
17.3374

> <Gold.Goldscore.Internal.HBond>
0.0000

> <Gold.Goldscore.External.HBond>
10.0454

> <Gold.Goldscore.Internal.Correction>
-0.7650

> <Gold.Goldscore.Hbonds>
donor molecule, donor type, donor heavy atom, donor atom, acceptor molecule, acceptor atom, score
      P1  H  2583  2589       L1     9  0.02
      P1  H   580   587       L1    11  1.00
      P1  H   585   590       L1    11  1.00
      L1  H     8    22       P1  2502  1.00

> <Gold.Goldscore.Internal.Vdw.Weighted>
-0.7744

> <Gold.Goldscore.Internal.Torsion.Weighted>
-0.5610

> <Gold.Goldscore.External.Vdw.Weighted>
23.8389

> <Gold.Goldscore.Internal.HBond.Weighted>
0.0000

> <Gold.Goldscore.External.HBond.Weighted>
10.0454

> <Gold.Goldscore.Internal.Correction.Weighted>
-0.7650

> <Gold.Rescore>
     Score     S(PLP)   S(hbond)     S(cho)   S(metal)  DE(clash)   DE(tors)     intcor
     30.72     -24.87       2.59       0.00       0.00       0.05       0.93       ----

> <Gold.PLP.Fitness>
30.7195

> <Gold.PLP.PLP>
-24.8737

> <Gold.PLP.part.hbond>
-2.7536

> <Gold.PLP.part.metal>
0.0000

> <Gold.PLP.part.buried>
-5.9677

> <Gold.PLP.part.nonpolar>
-18.4038

> <Gold.PLP.part.repulsive>
0.8634

> <Gold.PLP.ligand.clash>
0.0475

> <Gold.PLP.ligand.torsion>
0.9335

> <Gold.PLP.Chemscore.Hbond>
2.5868

> <Gold.PLP.Chemscore.CHOScore>
0.0000

> <Gold.PLP.Chemscore.Metal>
0.0000

> <Gold.Chemscore.Hbonds>
donor molecule, donor type, donor heavy atom, donor atom, acceptor molecule, acceptor atom, score
      L1  H     8    22       P1  2502  1.00
      P1  H   580   587       L1    11  1.00
      P1  H   585   590       L1    11  1.00

> <Gold.PLP.Chemscore.Internal.Correction>
   9.000000E+99

#       Name:                CT1002167954
#       Creating user name   hitesit
#       Creation time:       Sun Apr 16 22:50:49 2023


#       File generated by GOLD software.
#

@<TRIPOS>MOLECULE
CT1002167954|ligand_prepared|mol2|1|dock9
    29    30     1
SMALL
NO_CHARGES


@<TRIPOS>ATOM
      1 C1          25.2661  -9.3942   1.8800 C.3            1 RES1               0.0000
      2 C2          24.9180 -10.6597   1.0700 C.ar           1 RES1               0.0000
      3 C3          23.9362  -8.7735   2.2977 C.2            1 RES1               0.0000
      4 C4          26.1297  -9.8589   3.0474 C.2            1 RES1               0.0000
      5 C5          26.0696  -8.3421   1.0806 C.3            1 RES1               0.0000
      6 C6          24.7536 -10.5946  -0.3104 C.ar           1 RES1               0.0000
      7 C7          24.7610 -11.8976   1.6878 C.ar           1 RES1               0.0000
      8 N8          23.5645  -8.8960   3.6041 N.am           1 RES1               0.0000
      9 O9          23.2063  -8.2196   1.4849 O.2            1 RES1               0.0000
     10 N10         25.6223  -9.7278   4.3135 N.am           1 RES1               0.0000
     11 O11         27.2381 -10.3529   2.8812 O.2            1 RES1               0.0000
     12 C12         26.6874  -7.2551   1.9460 C.3            1 RES1               0.0000
     13 C13         24.4464 -11.7266  -1.0470 C.ar           1 RES1               0.0000
     14 C14         24.4534 -13.0283   0.9492 C.ar           1 RES1               0.0000
     15 C15         24.3664  -9.2958   4.6427 C.2            1 RES1               0.0000
     16 C16         24.2965 -12.9441  -0.4179 C.ar           1 RES1               0.0000
     17 O17         23.9633  -9.2572   5.8017 O.2            1 RES1               0.0000
     18 H18         26.8695  -8.8523   0.5299 H              1 RES1               0.0000
     19 H19         25.4036  -7.8726   0.3460 H              1 RES1               0.0000
     20 H20         24.8653  -9.6447  -0.8225 H              1 RES1               0.0000
     21 H21         24.8787 -11.9874   2.7623 H              1 RES1               0.0000
     22 H22         22.6011  -8.6694   3.8296 H              1 RES1               0.0000
     23 H23         26.2378  -9.9751   5.0818 H              1 RES1               0.0000
     24 H24         27.2396  -6.5435   1.3357 H              1 RES1               0.0000
     25 H25         25.9179  -6.7104   2.4890 H              1 RES1               0.0000
     26 H26         27.3750  -7.6843   2.6718 H              1 RES1               0.0000
     27 H27         24.3226 -11.6547  -2.1225 H              1 RES1               0.0000
     28 H28         24.3358 -13.9843   1.4486 H              1 RES1               0.0000
     29 H29         24.0562 -13.8307  -0.9952 H              1 RES1               0.0000
@<TRIPOS>BOND
    1    1    2 1     
    2    1    3 1     
    3    1    4 1     
    4    1    5 1     
    5    2    6 ar    
    6    2    7 ar    
    7    3    8 1     
    8    3    9 2     
    9    4   10 1     
   10    4   11 2     
   11    5   12 1     
   12    5   18 1     
   13    5   19 1     
   14    6   13 ar    
   15    6   20 1     
   16    7   14 ar    
   17    7   21 1     
   18    8   15 1     
   19    8   22 1     
   20   10   15 1     
   21   10   23 1     
   22   12   24 1     
   23   12   25 1     
   24   12   26 1     
   25   13   16 ar    
   26   13   27 1     
   27   14   16 ar    
   28   14   28 1     
   29   15   17 2     
   30   16   29 1     
@<TRIPOS>SUBSTRUCTURE
      1 RES1           1
@<TRIPOS>SET
DONOR_HYDROGENS      STATIC     ATOMS    <user>   **** ""
2 22 23
ATOM$RED        STATIC     ATOMS    COLORGROUP SYSTEM
2 22 23
@<TRIPOS>COMMENT
> <Gold.Version>
2022.3.0

> <Gold.Id.Protein>
unknown|3oxt_clean|pdb

> <Gold.Protein.RotatedTorsions>
[ 3607 3598 3597 3595 ] final   91.56 input   60.01 | X-H torsion
[ 3527 3518 3517 3515 ] final   70.94 input   60.00 | X-H torsion
[ 3788 3779 3778 3776 ] final -136.97 input   59.99 | X-H torsion
[ 3080 3073 3071 3068 ] final   -9.18 input   60.03 | X-H torsion
[ 5059 5050 5049 5047 ] final  104.28 input   60.00 | X-H torsion
[ 2545 2534 2533 2532 ] final -160.78 input   59.97 | X-H torsion
[  570  565  563  560 ] final   19.36 input   59.99 | X-H torsion
[ 1886 1881 1880 1877 ] final   79.23 input   59.97 | X-H torsion
[ 3130 3121 3120 3118 ] final -113.97 input   60.01 | X-H torsion
[  590  585  584  581 ] final   76.33 input   60.02 | X-H torsion

> <Gold.Protein.ActiveResidues>
 LEU49   GLY50   THR51   GLY52   SER53   PHE54   LEU82   LYS83   GLN84   HIS87  
 GLY126  GLU127  MET128  PHE129  SER130  HIS131  LEU132  ARG133  ARG134  ILE135 
 GLY136  ARG137  ARG165  ASP166  LEU167  LYS168  PRO169  GLU170  ASN171  LEU173 
 ASP184  GLY186  PHE187  TPO197  LEU198  CYS199  GLY200  THR201  PRO202  GLU203 
 TYR204  LEU205  ILE209  ILE210  VAL226  LEU227  TYR229  GLU230  ALA233  GLY234 
 TYR235  PRO236  PRO237  PHE238  PHE239  ALA240  ASP241  GLN242  PRO243  ILE244 
 GLN245  ILE246  TYR247  LYS249  ARG256  PHE257  PRO258  SER259  ASN326  PHE327 
 ASP328  ASP329  TYR330 

> <Gold.Protein.RotatedAtoms>
   21.0990  -12.3785    5.7779 H   0  0  0  0  0  0  0  0  0  0  0  0  # atno 570  bound_to 565 
   17.8079  -12.3259   -2.5680 H   0  0  0  0  0  0  0  0  0  0  0  0  # atno 590  bound_to 585 
   27.4505   -4.7381   11.0835 H   0  0  0  0  0  0  0  0  0  0  0  0  # atno 1886 bound_to 1881
   20.1008   -5.0004    0.7667 H   0  0  0  0  0  0  0  0  0  0  0  0  # atno 2545 bound_to 2534
   19.4843   -3.6827    1.5621 H   0  0  0  0  0  0  0  0  0  0  0  0  # atno 2546 bound_to 2534
   19.6080   -3.6711   -0.0910 H   0  0  0  0  0  0  0  0  0  0  0  0  # atno 2547 bound_to 2534
   18.1078   -2.8033   -1.3631 H   0  0  0  0  0  0  0  0  0  0  0  0  # atno 3080 bound_to 3073
   22.0828    5.2909    3.6261 H   0  0  0  0  0  0  0  0  0  0  0  0  # atno 3130 bound_to 3121
   17.2648   13.5367    8.4192 H   0  0  0  0  0  0  0  0  0  0  0  0  # atno 3527 bound_to 3518
   15.7913   13.4225   12.3394 H   0  0  0  0  0  0  0  0  0  0  0  0  # atno 3607 bound_to 3598
    9.2756   -1.1516   -3.4346 H   0  0  0  0  0  0  0  0  0  0  0  0  # atno 3788 bound_to 3779
   23.9055  -10.0648    8.2909 H   0  0  0  0  0  0  0  0  0  0  0  0  # atno 5059 bound_to 5050
   16.6684   13.7586   11.0106 LP  0  0  0  0  0  0  0  0  0  0  0  0  # atno 5367 bound_to 3598
   17.4084   13.5642   12.4533 LP  0  0  0  0  0  0  0  0  0  0  0  0  # atno 5368 bound_to 3598
   16.2535   12.6448    7.5073 LP  0  0  0  0  0  0  0  0  0  0  0  0  # atno 5371 bound_to 3518
   16.6291   14.1701    7.0612 LP  0  0  0  0  0  0  0  0  0  0  0  0  # atno 5372 bound_to 3518
    9.4332   -0.9699   -1.8253 LP  0  0  0  0  0  0  0  0  0  0  0  0  # atno 5429 bound_to 3779
   10.6345   -0.4963   -2.8250 LP  0  0  0  0  0  0  0  0  0  0  0  0  # atno 5430 bound_to 3779
   18.6235   -2.7457    0.1791 LP  0  0  0  0  0  0  0  0  0  0  0  0  # atno 5433 bound_to 3073
   19.4290   -1.9319   -0.9852 LP  0  0  0  0  0  0  0  0  0  0  0  0  # atno 5434 bound_to 3073
   24.7792   -9.6786    9.6077 LP  0  0  0  0  0  0  0  0  0  0  0  0  # atno 5443 bound_to 5050
   23.1476   -9.6598    9.6722 LP  0  0  0  0  0  0  0  0  0  0  0  0  # atno 5444 bound_to 5050
   21.2766  -13.2304    7.1530 LP  0  0  0  0  0  0  0  0  0  0  0  0  # atno 5447 bound_to 565 
   20.0053  -13.5182    6.1694 LP  0  0  0  0  0  0  0  0  0  0  0  0  # atno 5448 bound_to 565 
   26.2430   -4.8702   12.1663 LP  0  0  0  0  0  0  0  0  0  0  0  0  # atno 5453 bound_to 1881
   27.6535   -5.6555   12.4121 LP  0  0  0  0  0  0  0  0  0  0  0  0  # atno 5454 bound_to 1881
   23.0377    4.0081    3.3239 LP  0  0  0  0  0  0  0  0  0  0  0  0  # atno 5481 bound_to 3121
   21.6908    3.8314    4.2302 LP  0  0  0  0  0  0  0  0  0  0  0  0  # atno 5482 bound_to 3121
   18.2519  -11.4131   -1.2958 LP  0  0  0  0  0  0  0  0  0  0  0  0  # atno 5489 bound_to 585 
   16.9637  -10.9832   -2.2027 LP  0  0  0  0  0  0  0  0  0  0  0  0  # atno 5490 bound_to 585 

> <Gold.Score>
     Fitness  S(hb_ext) S(vdw_ext)  S(hb_int)    S(int)      intcor
     33.27       0.81      24.05       0.00      -0.61      -0.76

> <Gold.Goldscore.Fitness>
33.2671

> <Gold.Goldscore.Internal.Vdw>
-0.7258

> <Gold.Goldscore.Internal.Torsion>
-0.6399

> <Gold.Goldscore.External.Vdw>
24.0459

> <Gold.Goldscore.Internal.HBond>
0.0000

> <Gold.Goldscore.External.HBond>
0.8112

> <Gold.Goldscore.Internal.Correction>
-0.7585

> <Gold.Goldscore.Hbonds>
donor molecule, donor type, donor heavy atom, donor atom, acceptor molecule, acceptor atom, score
      P1  H  5050  5059       L1    17  0.39
      P1  H   559   566       L1    17  0.02

> <Gold.Goldscore.Internal.Vdw.Weighted>
-0.7258

> <Gold.Goldscore.Internal.Torsion.Weighted>
-0.6399

> <Gold.Goldscore.External.Vdw.Weighted>
33.0631

> <Gold.Goldscore.Internal.HBond.Weighted>
0.0000

> <Gold.Goldscore.External.HBond.Weighted>
0.8112

> <Gold.Goldscore.Internal.Correction.Weighted>
-0.7585

> <Gold.Rescore>
     Score     S(PLP)   S(hbond)     S(cho)   S(metal)  DE(clash)   DE(tors)     intcor
     35.73     -35.14       1.00       0.00       0.00       0.36       1.03       ----

> <Gold.PLP.Fitness>
35.7321

> <Gold.PLP.PLP>
-35.1406

> <Gold.PLP.part.hbond>
-2.5566

> <Gold.PLP.part.metal>
0.0000

> <Gold.PLP.part.buried>
-4.8230

> <Gold.PLP.part.nonpolar>
-29.4657

> <Gold.PLP.part.repulsive>
0.5725

> <Gold.PLP.ligand.clash>
0.3567

> <Gold.PLP.ligand.torsion>
1.0259

> <Gold.PLP.Chemscore.Hbond>
1.0000

> <Gold.PLP.Chemscore.CHOScore>
0.0000

> <Gold.PLP.Chemscore.Metal>
0.0000

> <Gold.PLP.Chemscore.Internal.Correction>
   9.000000E+99

#       Name:                CT1002167954
#       Creating user name   hitesit
#       Creation time:       Sun Apr 16 22:50:47 2023


#       File generated by GOLD software.
#

@<TRIPOS>MOLECULE
CT1002167954|ligand_prepared|mol2|1|dock8
    29    30     1
SMALL
NO_CHARGES


@<TRIPOS>ATOM
      1 C1          25.6090  -9.2653   2.6534 C.3            1 RES1               0.0000
      2 C2          25.1653 -10.4347   1.7509 C.ar           1 RES1               0.0000
      3 C3          24.3859  -8.3695   2.8262 C.2            1 RES1               0.0000
      4 C4          26.1087  -9.8929   3.9500 C.2            1 RES1               0.0000
      5 C5          26.7581  -8.4182   2.0587 C.3            1 RES1               0.0000
      6 C6          24.9457 -10.2365   0.3911 C.ar           1 RES1               0.0000
      7 C7          24.9745 -11.7155   2.2623 C.ar           1 RES1               0.0000
      8 N8          23.7484  -8.3963   4.0316 N.am           1 RES1               0.0000
      9 O9          23.9637  -7.6800   1.9061 O.2            1 RES1               0.0000
     10 N10         25.4031  -9.6432   5.0978 N.am           1 RES1               0.0000
     11 O11         27.0975 -10.6148   3.9851 O.2            1 RES1               0.0000
     12 C12         27.2876  -7.3526   3.0054 C.3            1 RES1               0.0000
     13 C13         24.5525 -11.2815  -0.4285 C.ar           1 RES1               0.0000
     14 C14         24.5810 -12.7591   1.4410 C.ar           1 RES1               0.0000
     15 C15         24.2281  -8.9484   5.1920 C.2            1 RES1               0.0000
     16 C16         24.3703 -12.5434   0.0957 C.ar           1 RES1               0.0000
     17 O17         23.6236  -8.8126   6.2519 O.2            1 RES1               0.0000
     18 H18         27.5829  -9.0865   1.7824 H              1 RES1               0.0000
     19 H19         26.4003  -7.9309   1.1433 H              1 RES1               0.0000
     20 H20         25.0817  -9.2497  -0.0389 H              1 RES1               0.0000
     21 H21         25.1334 -11.9083   3.3179 H              1 RES1               0.0000
     22 H22         22.8300  -7.9660   4.0740 H              1 RES1               0.0000
     23 H23         25.7896 -10.0091   5.9621 H              1 RES1               0.0000
     24 H24         28.0918  -6.7875   2.5390 H              1 RES1               0.0000
     25 H25         26.4992  -6.6554   3.2812 H              1 RES1               0.0000
     26 H26         27.6748  -7.8041   3.9165 H              1 RES1               0.0000
     27 H27         24.3866 -11.1062  -1.4863 H              1 RES1               0.0000
     28 H28         24.4382 -13.7506   1.8580 H              1 RES1               0.0000
     29 H29         24.0626 -13.3620  -0.5465 H              1 RES1               0.0000
@<TRIPOS>BOND
    1    1    2 1     
    2    1    3 1     
    3    1    4 1     
    4    1    5 1     
    5    2    6 ar    
    6    2    7 ar    
    7    3    8 1     
    8    3    9 2     
    9    4   10 1     
   10    4   11 2     
   11    5   12 1     
   12    5   18 1     
   13    5   19 1     
   14    6   13 ar    
   15    6   20 1     
   16    7   14 ar    
   17    7   21 1     
   18    8   15 1     
   19    8   22 1     
   20   10   15 1     
   21   10   23 1     
   22   12   24 1     
   23   12   25 1     
   24   12   26 1     
   25   13   16 ar    
   26   13   27 1     
   27   14   16 ar    
   28   14   28 1     
   29   15   17 2     
   30   16   29 1     
@<TRIPOS>SUBSTRUCTURE
      1 RES1           1
@<TRIPOS>SET
DONOR_HYDROGENS      STATIC     ATOMS    <user>   **** ""
2 22 23
ATOM$RED        STATIC     ATOMS    COLORGROUP SYSTEM
2 22 23
@<TRIPOS>COMMENT
> <Gold.Version>
2022.3.0

> <Gold.Id.Protein>
unknown|3oxt_clean|pdb

> <Gold.Protein.RotatedTorsions>
[ 3607 3598 3597 3595 ] final -114.32 input   60.01 | X-H torsion
[ 3527 3518 3517 3515 ] final -166.78 input   60.00 | X-H torsion
[ 3788 3779 3778 3776 ] final  131.86 input   59.99 | X-H torsion
[ 3080 3073 3071 3068 ] final    4.08 input   60.03 | X-H torsion
[ 5059 5050 5049 5047 ] final -113.72 input   60.00 | X-H torsion
[ 2545 2534 2533 2532 ] final  162.34 input   59.97 | X-H torsion
[  570  565  563  560 ] final  123.34 input   59.99 | X-H torsion
[ 1886 1881 1880 1877 ] final -170.60 input   59.97 | X-H torsion
[ 3130 3121 3120 3118 ] final   45.43 input   60.01 | X-H torsion
[  590  585  584  581 ] final   76.01 input   60.02 | X-H torsion

> <Gold.Protein.ActiveResidues>
 LEU49   GLY50   THR51   GLY52   SER53   PHE54   LEU82   LYS83   GLN84   HIS87  
 GLY126  GLU127  MET128  PHE129  SER130  HIS131  LEU132  ARG133  ARG134  ILE135 
 GLY136  ARG137  ARG165  ASP166  LEU167  LYS168  PRO169  GLU170  ASN171  LEU173 
 ASP184  GLY186  PHE187  TPO197  LEU198  CYS199  GLY200  THR201  PRO202  GLU203 
 TYR204  LEU205  ILE209  ILE210  VAL226  LEU227  TYR229  GLU230  ALA233  GLY234 
 TYR235  PRO236  PRO237  PHE238  PHE239  ALA240  ASP241  GLN242  PRO243  ILE244 
 GLN245  ILE246  TYR247  LYS249  ARG256  PHE257  PRO258  SER259  ASN326  PHE327 
 ASP328  ASP329  TYR330 

> <Gold.Protein.RotatedAtoms>
   20.0146  -13.3627    5.9589 H   0  0  0  0  0  0  0  0  0  0  0  0  # atno 570  bound_to 565 
   17.8121  -12.3273   -2.5651 H   0  0  0  0  0  0  0  0  0  0  0  0  # atno 590  bound_to 585 
   27.7612   -5.6281   12.2953 H   0  0  0  0  0  0  0  0  0  0  0  0  # atno 1886 bound_to 1881
   20.0695   -4.8196    0.1900 H   0  0  0  0  0  0  0  0  0  0  0  0  # atno 2545 bound_to 2534
   19.7046   -4.2306    1.6962 H   0  0  0  0  0  0  0  0  0  0  0  0  # atno 2546 bound_to 2534
   19.4190   -3.3042    0.3514 H   0  0  0  0  0  0  0  0  0  0  0  0  # atno 2547 bound_to 2534
   18.2301   -2.6880   -1.4993 H   0  0  0  0  0  0  0  0  0  0  0  0  # atno 3080 bound_to 3073
   22.1723    3.4893    4.0015 H   0  0  0  0  0  0  0  0  0  0  0  0  # atno 3130 bound_to 3121
   16.6086   14.1437    7.0431 H   0  0  0  0  0  0  0  0  0  0  0  0  # atno 3527 bound_to 3518
   17.5524   13.6726   11.9322 H   0  0  0  0  0  0  0  0  0  0  0  0  # atno 3607 bound_to 3598
    9.1009   -1.1373   -2.1088 H   0  0  0  0  0  0  0  0  0  0  0  0  # atno 3788 bound_to 3779
   23.3988   -9.5902    9.9181 H   0  0  0  0  0  0  0  0  0  0  0  0  # atno 5059 bound_to 5050
   16.1688   13.3882   12.7399 LP  0  0  0  0  0  0  0  0  0  0  0  0  # atno 5367 bound_to 3598
   16.1345   13.6828   11.1341 LP  0  0  0  0  0  0  0  0  0  0  0  0  # atno 5368 bound_to 3598
   17.2745   13.5731    8.4145 LP  0  0  0  0  0  0  0  0  0  0  0  0  # atno 5371 bound_to 3518
   16.2685   12.6310    7.5387 LP  0  0  0  0  0  0  0  0  0  0  0  0  # atno 5372 bound_to 3518
   10.5732   -0.4913   -2.3596 LP  0  0  0  0  0  0  0  0  0  0  0  0  # atno 5429 bound_to 3779
    9.6703   -0.9893   -3.6259 LP  0  0  0  0  0  0  0  0  0  0  0  0  # atno 5430 bound_to 3779
   18.4506   -2.8551    0.1042 LP  0  0  0  0  0  0  0  0  0  0  0  0  # atno 5433 bound_to 3073
   19.4788   -1.9387   -0.7732 LP  0  0  0  0  0  0  0  0  0  0  0  0  # atno 5434 bound_to 3073
   23.5552  -10.0416    8.3631 LP  0  0  0  0  0  0  0  0  0  0  0  0  # atno 5443 bound_to 5050
   24.8823   -9.7751    9.2766 LP  0  0  0  0  0  0  0  0  0  0  0  0  # atno 5444 bound_to 5050
   21.2902  -12.3521    5.9549 LP  0  0  0  0  0  0  0  0  0  0  0  0  # atno 5447 bound_to 565 
   21.0835  -13.4057    7.1853 LP  0  0  0  0  0  0  0  0  0  0  0  0  # atno 5448 bound_to 565 
   27.3079   -4.6655   11.0642 LP  0  0  0  0  0  0  0  0  0  0  0  0  # atno 5453 bound_to 1881
   26.2757   -4.9639   12.2939 LP  0  0  0  0  0  0  0  0  0  0  0  0  # atno 5454 bound_to 1881
   21.6316    5.0241    3.9816 LP  0  0  0  0  0  0  0  0  0  0  0  0  # atno 5481 bound_to 3121
   23.0068    4.6297    3.1943 LP  0  0  0  0  0  0  0  0  0  0  0  0  # atno 5482 bound_to 3121
   18.2491  -11.4086   -1.2946 LP  0  0  0  0  0  0  0  0  0  0  0  0  # atno 5489 bound_to 585 
   16.9622  -10.9862   -2.2069 LP  0  0  0  0  0  0  0  0  0  0  0  0  # atno 5490 bound_to 585 

> <Gold.Score>
     Fitness  S(hb_ext) S(vdw_ext)  S(hb_int)    S(int)      intcor
     31.11       0.00      23.69       0.00      -1.46      -0.76

> <Gold.Goldscore.Fitness>
31.1146

> <Gold.Goldscore.Internal.Vdw>
-1.7996

> <Gold.Goldscore.Internal.Torsion>
-0.4166

> <Gold.Goldscore.External.Vdw>
23.6889

> <Gold.Goldscore.Internal.HBond>
0.0000

> <Gold.Goldscore.External.HBond>
0.0000

> <Gold.Goldscore.Internal.Correction>
-0.7585

> <Gold.Goldscore.Internal.Vdw.Weighted>
-1.7996

> <Gold.Goldscore.Internal.Torsion.Weighted>
-0.4166

> <Gold.Goldscore.External.Vdw.Weighted>
32.5722

> <Gold.Goldscore.Internal.HBond.Weighted>
0.0000

> <Gold.Goldscore.External.HBond.Weighted>
0.0000

> <Gold.Goldscore.Internal.Correction.Weighted>
-0.7585

> <Gold.Rescore>
     Score     S(PLP)   S(hbond)     S(cho)   S(metal)  DE(clash)   DE(tors)     intcor
     31.78     -33.36       0.00       0.00       0.00       1.44       0.07       ----

> <Gold.PLP.Fitness>
31.7791

> <Gold.PLP.PLP>
-33.3614

> <Gold.PLP.part.hbond>
-0.4464

> <Gold.PLP.part.metal>
0.0000

> <Gold.PLP.part.buried>
-6.0689

> <Gold.PLP.part.nonpolar>
-28.4671

> <Gold.PLP.part.repulsive>
1.8709

> <Gold.PLP.ligand.clash>
1.4396

> <Gold.PLP.ligand.torsion>
0.0714

> <Gold.PLP.Chemscore.Hbond>
0.0000

> <Gold.PLP.Chemscore.CHOScore>
0.0000

> <Gold.PLP.Chemscore.Metal>
0.0000

> <Gold.PLP.Chemscore.Internal.Correction>
   9.000000E+99

#       Name:                CT1002167954
#       Creating user name   hitesit
#       Creation time:       Sun Apr 16 22:50:44 2023


#       File generated by GOLD software.
#

@<TRIPOS>MOLECULE
CT1002167954|ligand_prepared|mol2|1|dock6
    29    30     1
SMALL
NO_CHARGES


@<TRIPOS>ATOM
      1 C1          20.8338  -8.8789  -2.2845 C.3            1 RES1               0.0000
      2 C2          21.9292  -9.7773  -1.6747 C.ar           1 RES1               0.0000
      3 C3          21.4150  -7.4690  -2.3352 C.2            1 RES1               0.0000
      4 C4          20.5114  -9.4685  -3.6531 C.2            1 RES1               0.0000
      5 C5          19.5258  -8.8416  -1.4602 C.3            1 RES1               0.0000
      6 C6          22.1749  -9.7645  -0.3049 C.ar           1 RES1               0.0000
      7 C7          22.6989 -10.6245  -2.4674 C.ar           1 RES1               0.0000
      8 N8          21.7863  -6.9821  -3.5538 N.am           1 RES1               0.0000
      9 O9          21.5818  -6.8096  -1.3165 O.2            1 RES1               0.0000
     10 N10         20.8143  -8.7218  -4.7614 N.am           1 RES1               0.0000
     11 O11         20.0131 -10.5799  -3.7822 O.2            1 RES1               0.0000
     12 C12         18.3727  -8.1506  -2.1709 C.3            1 RES1               0.0000
     13 C13         23.1526 -10.5716   0.2526 C.ar           1 RES1               0.0000
     14 C14         23.6764 -11.4306  -1.9077 C.ar           1 RES1               0.0000
     15 C15         21.4653  -7.5184  -4.7748 C.2            1 RES1               0.0000
     16 C16         23.9037 -11.4054  -0.5482 C.ar           1 RES1               0.0000
     17 O17         21.7512  -6.9331  -5.8155 O.2            1 RES1               0.0000
     18 H18         19.2286  -9.8705  -1.2228 H              1 RES1               0.0000
     19 H19         19.7195  -8.3217  -0.5138 H              1 RES1               0.0000
     20 H20         21.5955  -9.1130   0.3408 H              1 RES1               0.0000
     21 H21         22.5383 -10.6601  -3.5395 H              1 RES1               0.0000
     22 H22         22.3554  -6.1416  -3.5575 H              1 RES1               0.0000
     23 H23         20.5278  -9.0979  -5.6597 H              1 RES1               0.0000
     24 H24         17.4799  -8.1522  -1.5491 H              1 RES1               0.0000
     25 H25         18.6244  -7.1172  -2.3998 H              1 RES1               0.0000
     26 H26         18.1363  -8.6567  -3.1046 H              1 RES1               0.0000
     27 H27         23.3285 -10.5470   1.3230 H              1 RES1               0.0000
     28 H28         24.2655 -12.0849  -2.5419 H              1 RES1               0.0000
     29 H29         24.6693 -12.0379  -0.1111 H              1 RES1               0.0000
@<TRIPOS>BOND
    1    1    2 1     
    2    1    3 1     
    3    1    4 1     
    4    1    5 1     
    5    2    6 ar    
    6    2    7 ar    
    7    3    8 1     
    8    3    9 2     
    9    4   10 1     
   10    4   11 2     
   11    5   12 1     
   12    5   18 1     
   13    5   19 1     
   14    6   13 ar    
   15    6   20 1     
   16    7   14 ar    
   17    7   21 1     
   18    8   15 1     
   19    8   22 1     
   20   10   15 1     
   21   10   23 1     
   22   12   24 1     
   23   12   25 1     
   24   12   26 1     
   25   13   16 ar    
   26   13   27 1     
   27   14   16 ar    
   28   14   28 1     
   29   15   17 2     
   30   16   29 1     
@<TRIPOS>SUBSTRUCTURE
      1 RES1           1
@<TRIPOS>SET
DONOR_HYDROGENS      STATIC     ATOMS    <user>   **** ""
2 22 23
ATOM$RED        STATIC     ATOMS    COLORGROUP SYSTEM
2 22 23
@<TRIPOS>COMMENT
> <Gold.Version>
2022.3.0

> <Gold.Id.Protein>
unknown|3oxt_clean|pdb

> <Gold.Protein.RotatedTorsions>
[ 3607 3598 3597 3595 ] final   11.60 input   60.01 | X-H torsion
[ 3527 3518 3517 3515 ] final -105.66 input   60.00 | X-H torsion
[ 3788 3779 3778 3776 ] final  -44.90 input   59.99 | X-H torsion
[ 3080 3073 3071 3068 ] final  -40.34 input   60.03 | X-H torsion
[ 5059 5050 5049 5047 ] final  -61.46 input   60.00 | X-H torsion
[ 2545 2534 2533 2532 ] final  118.17 input   59.97 | X-H torsion
[  570  565  563  560 ] final  -81.39 input   59.99 | X-H torsion
[ 1886 1881 1880 1877 ] final  113.81 input   59.97 | X-H torsion
[ 3130 3121 3120 3118 ] final   80.55 input   60.01 | X-H torsion
[  590  585  584  581 ] final  156.00 input   60.02 | X-H torsion

> <Gold.Protein.ActiveResidues>
 LEU49   GLY50   THR51   GLY52   SER53   PHE54   LEU82   LYS83   GLN84   HIS87  
 GLY126  GLU127  MET128  PHE129  SER130  HIS131  LEU132  ARG133  ARG134  ILE135 
 GLY136  ARG137  ARG165  ASP166  LEU167  LYS168  PRO169  GLU170  ASN171  LEU173 
 ASP184  GLY186  PHE187  TPO197  LEU198  CYS199  GLY200  THR201  PRO202  GLU203 
 TYR204  LEU205  ILE209  ILE210  VAL226  LEU227  TYR229  GLU230  ALA233  GLY234 
 TYR235  PRO236  PRO237  PHE238  PHE239  ALA240  ASP241  GLN242  PRO243  ILE244 
 GLN245  ILE246  TYR247  LYS249  ARG256  PHE257  PRO258  SER259  ASN326  PHE327 
 ASP328  ASP329  TYR330 

> <Gold.Protein.RotatedAtoms>
   21.4549  -13.0038    7.0281 H   0  0  0  0  0  0  0  0  0  0  0  0  # atno 570  bound_to 565 
   16.9711  -11.4685   -2.6320 H   0  0  0  0  0  0  0  0  0  0  0  0  # atno 590  bound_to 585 
   27.8505   -5.0549   11.3053 H   0  0  0  0  0  0  0  0  0  0  0  0  # atno 1886 bound_to 1881
   19.8586   -4.2482   -0.1936 H   0  0  0  0  0  0  0  0  0  0  0  0  # atno 2545 bound_to 2534
   19.9741   -4.8089    1.3624 H   0  0  0  0  0  0  0  0  0  0  0  0  # atno 2546 bound_to 2534
   19.3603   -3.2972    1.0685 H   0  0  0  0  0  0  0  0  0  0  0  0  # atno 2547 bound_to 2534
   17.9569   -3.0000   -0.9257 H   0  0  0  0  0  0  0  0  0  0  0  0  # atno 3080 bound_to 3073
   22.6437    3.5211    3.6916 H   0  0  0  0  0  0  0  0  0  0  0  0  # atno 3130 bound_to 3121
   16.1600   13.3119    6.9237 H   0  0  0  0  0  0  0  0  0  0  0  0  # atno 3527 bound_to 3518
   16.0585   13.6620   11.1912 H   0  0  0  0  0  0  0  0  0  0  0  0  # atno 3607 bound_to 3598
   10.4855   -0.5902   -3.2430 H   0  0  0  0  0  0  0  0  0  0  0  0  # atno 3788 bound_to 3779
   24.2115   -9.5520   10.0489 H   0  0  0  0  0  0  0  0  0  0  0  0  # atno 5059 bound_to 5050
   17.5518   13.6928   11.8371 LP  0  0  0  0  0  0  0  0  0  0  0  0  # atno 5367 bound_to 3598
   16.2559   13.3888   12.7831 LP  0  0  0  0  0  0  0  0  0  0  0  0  # atno 5368 bound_to 3598
   17.1565   14.2774    7.7750 LP  0  0  0  0  0  0  0  0  0  0  0  0  # atno 5371 bound_to 3518
   16.8379   12.7637    8.2983 LP  0  0  0  0  0  0  0  0  0  0  0  0  # atno 5372 bound_to 3518
    9.0073   -1.2513   -3.0828 LP  0  0  0  0  0  0  0  0  0  0  0  0  # atno 5429 bound_to 3779
    9.8419   -0.7803   -1.7606 LP  0  0  0  0  0  0  0  0  0  0  0  0  # atno 5430 bound_to 3779
   19.0329   -2.4480    0.1631 LP  0  0  0  0  0  0  0  0  0  0  0  0  # atno 5433 bound_to 3073
   19.1717   -2.0316   -1.4098 LP  0  0  0  0  0  0  0  0  0  0  0  0  # atno 5434 bound_to 3073
   23.0268   -9.8622    8.9781 LP  0  0  0  0  0  0  0  0  0  0  0  0  # atno 5443 bound_to 5050
   24.5916   -9.9930    8.5298 LP  0  0  0  0  0  0  0  0  0  0  0  0  # atno 5444 bound_to 5050
   20.0831  -13.6549    6.4427 LP  0  0  0  0  0  0  0  0  0  0  0  0  # atno 5447 bound_to 565 
   20.8405  -12.4642    5.6211 LP  0  0  0  0  0  0  0  0  0  0  0  0  # atno 5448 bound_to 565 
   26.3312   -4.6079   11.6791 LP  0  0  0  0  0  0  0  0  0  0  0  0  # atno 5453 bound_to 1881
   27.1626   -5.5986   12.6760 LP  0  0  0  0  0  0  0  0  0  0  0  0  # atno 5454 bound_to 1881
   21.4707    4.5259    4.2045 LP  0  0  0  0  0  0  0  0  0  0  0  0  # atno 5481 bound_to 3121
   22.6930    5.0959    3.2836 LP  0  0  0  0  0  0  0  0  0  0  0  0  # atno 5482 bound_to 3121
   18.2595  -12.3109   -2.1036 LP  0  0  0  0  0  0  0  0  0  0  0  0  # atno 5489 bound_to 585 
   17.7984  -10.9485   -1.3305 LP  0  0  0  0  0  0  0  0  0  0  0  0  # atno 5490 bound_to 585 

> <Gold.Score>
     Fitness  S(hb_ext) S(vdw_ext)  S(hb_int)    S(int)      intcor
     30.10       1.89      21.34       0.00      -1.13      -0.76

> <Gold.Goldscore.Fitness>
30.0971

> <Gold.Goldscore.Internal.Vdw>
-1.3829

> <Gold.Goldscore.Internal.Torsion>
-0.5108

> <Gold.Goldscore.External.Vdw>
21.3352

> <Gold.Goldscore.Internal.HBond>
0.0000

> <Gold.Goldscore.External.HBond>
1.8899

> <Gold.Goldscore.Internal.Correction>
-0.7650

> <Gold.Goldscore.Hbonds>
donor molecule, donor type, donor heavy atom, donor atom, acceptor molecule, acceptor atom, score
      P1  H  2583  2589       L1     9  0.12
      L1  H     8    22       P1  2502  0.27

> <Gold.Goldscore.Internal.Vdw.Weighted>
-1.3829

> <Gold.Goldscore.Internal.Torsion.Weighted>
-0.5108

> <Gold.Goldscore.External.Vdw.Weighted>
29.3359

> <Gold.Goldscore.Internal.HBond.Weighted>
0.0000

> <Gold.Goldscore.External.HBond.Weighted>
1.8899

> <Gold.Goldscore.Internal.Correction.Weighted>
-0.7650

> <Gold.Rescore>
     Score     S(PLP)   S(hbond)     S(cho)   S(metal)  DE(clash)   DE(tors)     intcor
     31.41     -27.59       1.78       0.00       0.00       1.22       0.16       ----

> <Gold.PLP.Fitness>
31.4079

> <Gold.PLP.PLP>
-27.5948

> <Gold.PLP.part.hbond>
-4.8918

> <Gold.PLP.part.metal>
0.0000

> <Gold.PLP.part.buried>
-6.6749

> <Gold.PLP.part.nonpolar>
-16.7880

> <Gold.PLP.part.repulsive>
0.3820

> <Gold.PLP.ligand.clash>
1.2152

> <Gold.PLP.ligand.torsion>
0.1619

> <Gold.PLP.Chemscore.Hbond>
1.7840

> <Gold.PLP.Chemscore.CHOScore>
0.0000

> <Gold.PLP.Chemscore.Metal>
0.0000

> <Gold.Chemscore.Hbonds>
donor molecule, donor type, donor heavy atom, donor atom, acceptor molecule, acceptor atom, score
      L1  H     8    22       P1  2502  0.95

> <Gold.PLP.Chemscore.Internal.Correction>
   9.000000E+99

#       Name:                CT1002167954
#       Creating user name   hitesit
#       Creation time:       Sun Apr 16 22:50:40 2023


#       File generated by GOLD software.
#

@<TRIPOS>MOLECULE
CT1002167954|ligand_prepared|mol2|1|dock3
    29    30     1
SMALL
NO_CHARGES


@<TRIPOS>ATOM
      1 C1          21.5457  -9.2046  -0.6130 C.3            1 RES1               0.0000
      2 C2          22.4497 -10.4157  -0.3053 C.ar           1 RES1               0.0000
      3 C3          20.1512  -9.5735  -0.1155 C.2            1 RES1               0.0000
      4 C4          22.1683  -8.0136   0.1072 C.2            1 RES1               0.0000
      5 C5          21.4548  -8.8589  -2.1176 C.3            1 RES1               0.0000
      6 C6          23.1979 -10.4617   0.8672 C.ar           1 RES1               0.0000
      7 C7          22.5437 -11.4937  -1.1815 C.ar           1 RES1               0.0000
      8 N8          19.7090  -8.9744   1.0271 N.am           1 RES1               0.0000
      9 O9          19.4657 -10.4069  -0.6950 O.2            1 RES1               0.0000
     10 N10         21.4617  -7.4425   1.1330 N.am           1 RES1               0.0000
     11 O11         23.2717  -7.5750  -0.1936 O.2            1 RES1               0.0000
     12 C12         20.8236  -7.5044  -2.3985 C.3            1 RES1               0.0000
     13 C13         24.0084 -11.5474   1.1549 C.ar           1 RES1               0.0000
     14 C14         23.3550 -12.5783  -0.8920 C.ar           1 RES1               0.0000
     15 C15         20.2739  -7.8882   1.6457 C.2            1 RES1               0.0000
     16 C16         24.0872 -12.6065   0.2758 C.ar           1 RES1               0.0000
     17 O17         19.7263  -7.3537   2.6057 O.2            1 RES1               0.0000
     18 H18         22.4652  -8.8730  -2.5448 H              1 RES1               0.0000
     19 H19         20.8662  -9.6343  -2.6232 H              1 RES1               0.0000
     20 H20         23.1506  -9.6364   1.5698 H              1 RES1               0.0000
     21 H21         21.9775 -11.4927  -2.1068 H              1 RES1               0.0000
     22 H22         18.8818  -9.3708   1.4619 H              1 RES1               0.0000
     23 H23         21.8577  -6.6078   1.5533 H              1 RES1               0.0000
     24 H24         20.7843  -7.3116  -3.4686 H              1 RES1               0.0000
     25 H25         19.8084  -7.4637  -2.0093 H              1 RES1               0.0000
     26 H26         21.3978  -6.7069  -1.9314 H              1 RES1               0.0000
     27 H27         24.5837 -11.5641   2.0747 H              1 RES1               0.0000
     28 H28         23.4144 -13.4094  -1.5870 H              1 RES1               0.0000
     29 H29         24.7218 -13.4570   0.5016 H              1 RES1               0.0000
@<TRIPOS>BOND
    1    1    2 1     
    2    1    3 1     
    3    1    4 1     
    4    1    5 1     
    5    2    6 ar    
    6    2    7 ar    
    7    3    8 1     
    8    3    9 2     
    9    4   10 1     
   10    4   11 2     
   11    5   12 1     
   12    5   18 1     
   13    5   19 1     
   14    6   13 ar    
   15    6   20 1     
   16    7   14 ar    
   17    7   21 1     
   18    8   15 1     
   19    8   22 1     
   20   10   15 1     
   21   10   23 1     
   22   12   24 1     
   23   12   25 1     
   24   12   26 1     
   25   13   16 ar    
   26   13   27 1     
   27   14   16 ar    
   28   14   28 1     
   29   15   17 2     
   30   16   29 1     
@<TRIPOS>SUBSTRUCTURE
      1 RES1           1
@<TRIPOS>SET
DONOR_HYDROGENS      STATIC     ATOMS    <user>   **** ""
2 22 23
ATOM$RED        STATIC     ATOMS    COLORGROUP SYSTEM
2 22 23
@<TRIPOS>COMMENT
> <Gold.Version>
2022.3.0

> <Gold.Id.Protein>
unknown|3oxt_clean|pdb

> <Gold.Protein.RotatedTorsions>
[ 3607 3598 3597 3595 ] final -179.30 input   60.01 | X-H torsion
[ 3527 3518 3517 3515 ] final -139.45 input   60.00 | X-H torsion
[ 3788 3779 3778 3776 ] final  116.12 input   59.99 | X-H torsion
[ 3080 3073 3071 3068 ] final -149.35 input   60.03 | X-H torsion
[ 5059 5050 5049 5047 ] final  120.86 input   60.00 | X-H torsion
[ 2545 2534 2533 2532 ] final -141.01 input   59.97 | X-H torsion
[  570  565  563  560 ] final  103.20 input   59.99 | X-H torsion
[ 1886 1881 1880 1877 ] final  -83.57 input   59.97 | X-H torsion
[ 3130 3121 3120 3118 ] final -163.97 input   60.01 | X-H torsion
[  590  585  584  581 ] final  -51.16 input   60.02 | X-H torsion

> <Gold.Protein.ActiveResidues>
 LEU49   GLY50   THR51   GLY52   SER53   PHE54   LEU82   LYS83   GLN84   HIS87  
 GLY126  GLU127  MET128  PHE129  SER130  HIS131  LEU132  ARG133  ARG134  ILE135 
 GLY136  ARG137  ARG165  ASP166  LEU167  LYS168  PRO169  GLU170  ASN171  LEU173 
 ASP184  GLY186  PHE187  TPO197  LEU198  CYS199  GLY200  THR201  PRO202  GLU203 
 TYR204  LEU205  ILE209  ILE210  VAL226  LEU227  TYR229  GLU230  ALA233  GLY234 
 TYR235  PRO236  PRO237  PHE238  PHE239  ALA240  ASP241  GLN242  PRO243  ILE244 
 GLN245  ILE246  TYR247  LYS249  ARG256  PHE257  PRO258  SER259  ASN326  PHE327 
 ASP328  ASP329  TYR330 

> <Gold.Protein.RotatedAtoms>
   20.1031  -13.1351    5.7408 H   0  0  0  0  0  0  0  0  0  0  0  0  # atno 570  bound_to 565 
   18.1785  -11.3162   -1.2776 H   0  0  0  0  0  0  0  0  0  0  0  0  # atno 590  bound_to 585 
   26.5596   -5.2847   12.6116 H   0  0  0  0  0  0  0  0  0  0  0  0  # atno 1886 bound_to 1881
   20.0549   -4.9508    1.0883 H   0  0  0  0  0  0  0  0  0  0  0  0  # atno 2545 bound_to 2534
   19.4025   -3.4486    1.3464 H   0  0  0  0  0  0  0  0  0  0  0  0  # atno 2546 bound_to 2534
   19.7356   -3.9547   -0.1967 H   0  0  0  0  0  0  0  0  0  0  0  0  # atno 2547 bound_to 2534
   18.8902   -2.5537    0.1937 H   0  0  0  0  0  0  0  0  0  0  0  0  # atno 3080 bound_to 3073
   22.7411    5.0426    3.2635 H   0  0  0  0  0  0  0  0  0  0  0  0  # atno 3130 bound_to 3121
   16.3559   13.8182    6.8817 H   0  0  0  0  0  0  0  0  0  0  0  0  # atno 3527 bound_to 3518
   17.0327   13.4660   12.7681 H   0  0  0  0  0  0  0  0  0  0  0  0  # atno 3607 bound_to 3598
    9.2667   -1.0499   -1.9340 H   0  0  0  0  0  0  0  0  0  0  0  0  # atno 3788 bound_to 3779
   23.6404  -10.0509    8.3388 H   0  0  0  0  0  0  0  0  0  0  0  0  # atno 5059 bound_to 5050
   15.6844   13.5038   11.8579 LP  0  0  0  0  0  0  0  0  0  0  0  0  # atno 5367 bound_to 3598
   17.1423   13.7752   11.1743 LP  0  0  0  0  0  0  0  0  0  0  0  0  # atno 5368 bound_to 3598
   17.3016   13.9619    8.1987 LP  0  0  0  0  0  0  0  0  0  0  0  0  # atno 5371 bound_to 3518
   16.4956   12.5699    7.9169 LP  0  0  0  0  0  0  0  0  0  0  0  0  # atno 5372 bound_to 3518
   10.6332   -0.4818   -2.6105 LP  0  0  0  0  0  0  0  0  0  0  0  0  # atno 5429 bound_to 3779
    9.4433   -1.0868   -3.5511 LP  0  0  0  0  0  0  0  0  0  0  0  0  # atno 5430 bound_to 3779
   19.2823   -1.9787   -1.2771 LP  0  0  0  0  0  0  0  0  0  0  0  0  # atno 5433 bound_to 3073
   17.9823   -2.9504   -1.0970 LP  0  0  0  0  0  0  0  0  0  0  0  0  # atno 5434 bound_to 3073
   24.8693   -9.7504    9.3615 LP  0  0  0  0  0  0  0  0  0  0  0  0  # atno 5443 bound_to 5050
   23.3247   -9.6020    9.8702 LP  0  0  0  0  0  0  0  0  0  0  0  0  # atno 5444 bound_to 5050
   21.4737  -12.4027    6.2240 LP  0  0  0  0  0  0  0  0  0  0  0  0  # atno 5447 bound_to 565 
   20.8109  -13.5842    7.1357 LP  0  0  0  0  0  0  0  0  0  0  0  0  # atno 5448 bound_to 565 
   27.9846   -5.4523   11.8441 LP  0  0  0  0  0  0  0  0  0  0  0  0  # atno 5453 bound_to 1881
   26.8091   -4.5229   11.1955 LP  0  0  0  0  0  0  0  0  0  0  0  0  # atno 5454 bound_to 1881
   22.5903    3.4922    3.7348 LP  0  0  0  0  0  0  0  0  0  0  0  0  # atno 5481 bound_to 3121
   21.4753    4.5973    4.1844 LP  0  0  0  0  0  0  0  0  0  0  0  0  # atno 5482 bound_to 3121
   16.9365  -11.0572   -2.2972 LP  0  0  0  0  0  0  0  0  0  0  0  0  # atno 5489 bound_to 585 
   17.9060  -12.3555   -2.5001 LP  0  0  0  0  0  0  0  0  0  0  0  0  # atno 5490 bound_to 585 

> <Gold.Score>
     Fitness  S(hb_ext) S(vdw_ext)  S(hb_int)    S(int)      intcor
     29.73       3.12      19.90       0.00      -0.75      -0.76

> <Gold.Goldscore.Fitness>
29.7311

> <Gold.Goldscore.Internal.Vdw>
-0.9032

> <Gold.Goldscore.Internal.Torsion>
-0.6123

> <Gold.Goldscore.External.Vdw>
19.9028

> <Gold.Goldscore.Internal.HBond>
0.0000

> <Gold.Goldscore.External.HBond>
3.1153

> <Gold.Goldscore.Internal.Correction>
-0.7650

> <Gold.Goldscore.Hbonds>
donor molecule, donor type, donor heavy atom, donor atom, acceptor molecule, acceptor atom, score
      P1  H  2534  2545       L1    17  0.08
      P1  H   580   587       L1     9  0.31
      P1  H   585   590       L1     9  1.00

> <Gold.Goldscore.Internal.Vdw.Weighted>
-0.9032

> <Gold.Goldscore.Internal.Torsion.Weighted>
-0.6123

> <Gold.Goldscore.External.Vdw.Weighted>
27.3664

> <Gold.Goldscore.Internal.HBond.Weighted>
0.0000

> <Gold.Goldscore.External.HBond.Weighted>
3.1153

> <Gold.Goldscore.Internal.Correction.Weighted>
-0.7650

> <Gold.Rescore>
     Score     S(PLP)   S(hbond)     S(cho)   S(metal)  DE(clash)   DE(tors)     intcor
     32.87     -29.13       2.00       0.00       0.00       2.09       0.08       ----

> <Gold.PLP.Fitness>
32.8735

> <Gold.PLP.PLP>
-29.1321

> <Gold.PLP.part.hbond>
-2.0000

> <Gold.PLP.part.metal>
0.0000

> <Gold.PLP.part.buried>
-6.6277

> <Gold.PLP.part.nonpolar>
-22.9988

> <Gold.PLP.part.repulsive>
1.2175

> <Gold.PLP.ligand.clash>
2.0942

> <Gold.PLP.ligand.torsion>
0.0822

> <Gold.PLP.Chemscore.Hbond>
2.0000

> <Gold.PLP.Chemscore.CHOScore>
0.0000

> <Gold.PLP.Chemscore.Metal>
0.0000

> <Gold.Chemscore.Hbonds>
donor molecule, donor type, donor heavy atom, donor atom, acceptor molecule, acceptor atom, score
      P1  H   580   587       L1     9  1.00
      P1  H   585   590       L1     9  1.00

> <Gold.PLP.Chemscore.Internal.Correction>
   9.000000E+99

#       Name:                CT1002167954
#       Creating user name   hitesit
#       Creation time:       Sun Apr 16 22:50:50 2023


#       File generated by GOLD software.
#

@<TRIPOS>MOLECULE
CT1002167954|ligand_prepared|mol2|1|dock10
    29    30     1
SMALL
NO_CHARGES


@<TRIPOS>ATOM
      1 C1          23.9325  -8.6879   2.5078 C.3            1 RES1               0.0000
      2 C2          23.9541 -10.0445   1.7743 C.ar           1 RES1               0.0000
      3 C3          23.6128  -7.6345   1.4512 C.2            1 RES1               0.0000
      4 C4          22.8781  -8.8113   3.6022 C.2            1 RES1               0.0000
      5 C5          25.2762  -8.3188   3.1785 C.3            1 RES1               0.0000
      6 C6          24.3881 -11.1953   2.4255 C.ar           1 RES1               0.0000
      7 C7          23.5412 -10.1611   0.4497 C.ar           1 RES1               0.0000
      8 N8          22.3628  -7.0892   1.4606 N.am           1 RES1               0.0000
      9 O9          24.4319  -7.3161   0.5980 O.2            1 RES1               0.0000
     10 N10         21.7575  -8.0287   3.5053 N.am           1 RES1               0.0000
     11 O11         22.9999  -9.5913   4.5387 O.2            1 RES1               0.0000
     12 C12         25.2594  -6.9725   3.8851 C.3            1 RES1               0.0000
     13 C13         24.4059 -12.4190   1.7770 C.ar           1 RES1               0.0000
     14 C14         23.5601 -11.3858  -0.1970 C.ar           1 RES1               0.0000
     15 C15         21.4379  -7.1956   2.4680 C.2            1 RES1               0.0000
     16 C16         23.9916 -12.5152   0.4656 C.ar           1 RES1               0.0000
     17 O17         20.3851  -6.5654   2.4266 O.2            1 RES1               0.0000
     18 H18         25.5324  -9.0972   3.9077 H              1 RES1               0.0000
     19 H19         26.0613  -8.3056   2.4124 H              1 RES1               0.0000
     20 H20         24.7202 -11.1386   3.4567 H              1 RES1               0.0000
     21 H21         23.1987  -9.2858  -0.0917 H              1 RES1               0.0000
     22 H22         22.0907  -6.5526   0.6431 H              1 RES1               0.0000
     23 H23         21.1007  -8.0710   4.2781 H              1 RES1               0.0000
     24 H24         26.2260  -6.7625   4.3382 H              1 RES1               0.0000
     25 H25         25.0325  -6.1718   3.1843 H              1 RES1               0.0000
     26 H26         24.5067  -6.9587   4.6707 H              1 RES1               0.0000
     27 H27         24.7478 -13.3046   2.3025 H              1 RES1               0.0000
     28 H28         23.2336 -11.4568  -1.2293 H              1 RES1               0.0000
     29 H29         24.0053 -13.4740  -0.0421 H              1 RES1               0.0000
@<TRIPOS>BOND
    1    1    2 1     
    2    1    3 1     
    3    1    4 1     
    4    1    5 1     
    5    2    6 ar    
    6    2    7 ar    
    7    3    8 1     
    8    3    9 2     
    9    4   10 1     
   10    4   11 2     
   11    5   12 1     
   12    5   18 1     
   13    5   19 1     
   14    6   13 ar    
   15    6   20 1     
   16    7   14 ar    
   17    7   21 1     
   18    8   15 1     
   19    8   22 1     
   20   10   15 1     
   21   10   23 1     
   22   12   24 1     
   23   12   25 1     
   24   12   26 1     
   25   13   16 ar    
   26   13   27 1     
   27   14   16 ar    
   28   14   28 1     
   29   15   17 2     
   30   16   29 1     
@<TRIPOS>SUBSTRUCTURE
      1 RES1           1
@<TRIPOS>SET
DONOR_HYDROGENS      STATIC     ATOMS    <user>   **** ""
2 22 23
ATOM$RED        STATIC     ATOMS    COLORGROUP SYSTEM
2 22 23
@<TRIPOS>COMMENT
> <Gold.Version>
2022.3.0

> <Gold.Id.Protein>
unknown|3oxt_clean|pdb

> <Gold.Protein.RotatedTorsions>
[ 3607 3598 3597 3595 ] final -131.65 input   60.01 | X-H torsion
[ 3527 3518 3517 3515 ] final  173.98 input   60.00 | X-H torsion
[ 3788 3779 3778 3776 ] final  -30.38 input   59.99 | X-H torsion
[ 3080 3073 3071 3068 ] final   30.84 input   60.03 | X-H torsion
[ 5059 5050 5049 5047 ] final  177.16 input   60.00 | X-H torsion
[ 2545 2534 2533 2532 ] final  116.55 input   59.97 | X-H torsion
[  570  565  563  560 ] final  146.83 input   59.99 | X-H torsion
[ 1886 1881 1880 1877 ] final   -2.09 input   59.97 | X-H torsion
[ 3130 3121 3120 3118 ] final  -95.51 input   60.01 | X-H torsion
[  590  585  584  581 ] final  104.10 input   60.02 | X-H torsion

> <Gold.Protein.ActiveResidues>
 LEU49   GLY50   THR51   GLY52   SER53   PHE54   LEU82   LYS83   GLN84   HIS87  
 GLY126  GLU127  MET128  PHE129  SER130  HIS131  LEU132  ARG133  ARG134  ILE135 
 GLY136  ARG137  ARG165  ASP166  LEU167  LYS168  PRO169  GLU170  ASN171  LEU173 
 ASP184  GLY186  PHE187  TPO197  LEU198  CYS199  GLY200  THR201  PRO202  GLU203 
 TYR204  LEU205  ILE209  ILE210  VAL226  LEU227  TYR229  GLU230  ALA233  GLY234 
 TYR235  PRO236  PRO237  PHE238  PHE239  ALA240  ASP241  GLN242  PRO243  ILE244 
 GLN245  ILE246  TYR247  LYS249  ARG256  PHE257  PRO258  SER259  ASN326  PHE327 
 ASP328  ASP329  TYR330 

> <Gold.Protein.RotatedAtoms>
   20.0320  -13.5769    6.2738 H   0  0  0  0  0  0  0  0  0  0  0  0  # atno 570  bound_to 565 
   17.4483  -12.1248   -2.7475 H   0  0  0  0  0  0  0  0  0  0  0  0  # atno 590  bound_to 585 
   26.3680   -4.5882   11.6259 H   0  0  0  0  0  0  0  0  0  0  0  0  # atno 1886 bound_to 1881
   19.8486   -4.2236   -0.1980 H   0  0  0  0  0  0  0  0  0  0  0  0  # atno 2545 bound_to 2534
   19.9821   -4.8241    1.3416 H   0  0  0  0  0  0  0  0  0  0  0  0  # atno 2546 bound_to 2534
   19.3624   -3.3067    1.0936 H   0  0  0  0  0  0  0  0  0  0  0  0  # atno 2547 bound_to 2534
   18.5476   -2.4307   -1.6427 H   0  0  0  0  0  0  0  0  0  0  0  0  # atno 3080 bound_to 3073
   21.8479    5.2118    3.7957 H   0  0  0  0  0  0  0  0  0  0  0  0  # atno 3130 bound_to 3121
   16.8049   14.2830    7.2433 H   0  0  0  0  0  0  0  0  0  0  0  0  # atno 3527 bound_to 3518
   17.5160   13.6181   12.2066 H   0  0  0  0  0  0  0  0  0  0  0  0  # atno 3607 bound_to 3598
   10.5829   -0.5315   -3.0354 H   0  0  0  0  0  0  0  0  0  0  0  0  # atno 3788 bound_to 3779
   23.0394   -9.8698    8.9594 H   0  0  0  0  0  0  0  0  0  0  0  0  # atno 5059 bound_to 5050
   15.9443   13.3982   12.5660 LP  0  0  0  0  0  0  0  0  0  0  0  0  # atno 5367 bound_to 3598
   16.3956   13.7276   11.0316 LP  0  0  0  0  0  0  0  0  0  0  0  0  # atno 5368 bound_to 3598
   17.1791   13.2776    8.4674 LP  0  0  0  0  0  0  0  0  0  0  0  0  # atno 5371 bound_to 3518
   16.1663   12.7864    7.2844 LP  0  0  0  0  0  0  0  0  0  0  0  0  # atno 5372 bound_to 3518
    9.1260   -1.2118   -3.2856 LP  0  0  0  0  0  0  0  0  0  0  0  0  # atno 5429 bound_to 3779
    9.6250   -0.8789   -1.7668 LP  0  0  0  0  0  0  0  0  0  0  0  0  # atno 5430 bound_to 3779
   18.1543   -3.0121   -0.1747 LP  0  0  0  0  0  0  0  0  0  0  0  0  # atno 5433 bound_to 3073
   19.4553   -2.0408   -0.3498 LP  0  0  0  0  0  0  0  0  0  0  0  0  # atno 5434 bound_to 3073
   24.6080   -9.9885    8.5451 LP  0  0  0  0  0  0  0  0  0  0  0  0  # atno 5443 bound_to 5050
   24.1918   -9.5464   10.0610 LP  0  0  0  0  0  0  0  0  0  0  0  0  # atno 5444 bound_to 5050
   21.0015  -12.3993    5.7064 LP  0  0  0  0  0  0  0  0  0  0  0  0  # atno 5447 bound_to 565 
   21.3546  -13.1428    7.1168 LP  0  0  0  0  0  0  0  0  0  0  0  0  # atno 5448 bound_to 565 
   27.0995   -5.5788   12.6897 LP  0  0  0  0  0  0  0  0  0  0  0  0  # atno 5453 bound_to 1881
   27.8871   -5.0978   11.3425 LP  0  0  0  0  0  0  0  0  0  0  0  0  # atno 5454 bound_to 1881
   23.0699    4.2952    3.2343 LP  0  0  0  0  0  0  0  0  0  0  0  0  # atno 5481 bound_to 3121
   21.8953    3.6239    4.1489 LP  0  0  0  0  0  0  0  0  0  0  0  0  # atno 5482 bound_to 3121
   18.4131  -11.7939   -1.4792 LP  0  0  0  0  0  0  0  0  0  0  0  0  # atno 5489 bound_to 585 
   17.1644  -10.8049   -1.8385 LP  0  0  0  0  0  0  0  0  0  0  0  0  # atno 5490 bound_to 585 

> <Gold.Score>
     Fitness  S(hb_ext) S(vdw_ext)  S(hb_int)    S(int)      intcor
     29.36       5.22      18.88       0.00      -1.82      -0.76

> <Gold.Goldscore.Fitness>
29.3636

> <Gold.Goldscore.Internal.Vdw>
-2.2073

> <Gold.Goldscore.Internal.Torsion>
-0.3690

> <Gold.Goldscore.External.Vdw>
18.8789

> <Gold.Goldscore.Internal.HBond>
0.0000

> <Gold.Goldscore.External.HBond>
5.2229

> <Gold.Goldscore.Internal.Correction>
-0.7585

> <Gold.Goldscore.Hbonds>
donor molecule, donor type, donor heavy atom, donor atom, acceptor molecule, acceptor atom, score
      P1  H  2534  2546       L1    17  0.87

> <Gold.Goldscore.Internal.Vdw.Weighted>
-2.2073

> <Gold.Goldscore.Internal.Torsion.Weighted>
-0.3690

> <Gold.Goldscore.External.Vdw.Weighted>
25.9584

> <Gold.Goldscore.Internal.HBond.Weighted>
0.0000

> <Gold.Goldscore.External.HBond.Weighted>
5.2229

> <Gold.Goldscore.Internal.Correction.Weighted>
-0.7585

> <Gold.Rescore>
     Score     S(PLP)   S(hbond)     S(cho)   S(metal)  DE(clash)   DE(tors)     intcor
     15.07     -17.12       0.00       0.00       0.00       1.19       0.43       ----

> <Gold.PLP.Fitness>
15.0739

> <Gold.PLP.PLP>
-17.1187

> <Gold.PLP.part.hbond>
-1.9099

> <Gold.PLP.part.metal>
0.0000

> <Gold.PLP.part.buried>
0.7247

> <Gold.PLP.part.nonpolar>
-23.8232

> <Gold.PLP.part.repulsive>
9.1152

> <Gold.PLP.ligand.clash>
1.1903

> <Gold.PLP.ligand.torsion>
0.4272

> <Gold.PLP.Chemscore.Hbond>
0.0000

> <Gold.PLP.Chemscore.CHOScore>
0.0000

> <Gold.PLP.Chemscore.Metal>
0.0000

> <Gold.Chemscore.Hbonds>
donor molecule, donor type, donor heavy atom, donor atom, acceptor molecule, acceptor atom, score
      P1  H  2534  2546       L1    17  1.00

> <Gold.PLP.Chemscore.Internal.Correction>
   9.000000E+99

