#       Name:                CT1002167954
#       Creating user name   hitesit
#       Creation time:       Sun Apr 16 22:50:37 2023


#       File generated by GOLD software.
#

@<TRIPOS>MOLECULE
CT1002167954|ligand_prepared|mol2|1|dock1
    29    30     1
SMALL
NO_CHARGES


@<TRIPOS>ATOM
      1 C1          20.6217  -9.8321  -2.2778 C.3            1 RES1               0.0000
      2 C2          21.6870 -10.9044  -1.9709 C.ar           1 RES1               0.0000
      3 C3          19.8192  -9.6455  -0.9935 C.2            1 RES1               0.0000
      4 C4          21.3838  -8.5883  -2.7215 C.2            1 RES1               0.0000
      5 C5          19.6478 -10.2258  -3.4127 C.3            1 RES1               0.0000
      6 C6          22.9445 -10.5393  -1.4995 C.ar           1 RES1               0.0000
      7 C7          21.4266 -12.2602  -2.1513 C.ar           1 RES1               0.0000
      8 N8          20.0327  -8.5062  -0.2750 N.am           1 RES1               0.0000
      9 O9          19.0401 -10.5032  -0.5966 O.2            1 RES1               0.0000
     10 N10         21.3196  -7.4769  -1.9224 N.am           1 RES1               0.0000
     11 O11         22.0528  -8.5660  -3.7473 O.2            1 RES1               0.0000
     12 C12         18.7261  -9.0977  -3.8486 C.3            1 RES1               0.0000
     13 C13         23.9059 -11.4952  -1.2159 C.ar           1 RES1               0.0000
     14 C14         22.3895 -13.2144  -1.8673 C.ar           1 RES1               0.0000
     15 C15         20.7037  -7.3892  -0.7038 C.2            1 RES1               0.0000
     16 C16         23.6290 -12.8332  -1.3991 C.ar           1 RES1               0.0000
     17 O17         20.7358  -6.3710  -0.0187 O.2            1 RES1               0.0000
     18 H18         20.2318 -10.5595  -4.2793 H              1 RES1               0.0000
     19 H19         19.0357 -11.0714  -3.0752 H              1 RES1               0.0000
     20 H20         23.1815  -9.4910  -1.3514 H              1 RES1               0.0000
     21 H21         20.4588 -12.5832  -2.5197 H              1 RES1               0.0000
     22 H22         19.6589  -8.4825   0.6684 H              1 RES1               0.0000
     23 H23         21.7730  -6.6371  -2.2682 H              1 RES1               0.0000
     24 H24         18.0639  -9.4272  -4.6465 H              1 RES1               0.0000
     25 H25         18.1121  -8.7582  -3.0171 H              1 RES1               0.0000
     26 H26         19.3011  -8.2493  -4.2140 H              1 RES1               0.0000
     27 H27         24.8802 -11.1899  -0.8489 H              1 RES1               0.0000
     28 H28         22.1675 -14.2663  -2.0137 H              1 RES1               0.0000
     29 H29         24.3821 -13.5818  -1.1765 H              1 RES1               0.0000
@<TRIPOS>BOND
    1    1    2 1     
    2    1    3 1     
    3    1    4 1     
    4    1    5 1     
    5    2    6 ar    
    6    2    7 ar    
    7    3    8 1     
    8    3    9 2     
    9    4   10 1     
   10    4   11 2     
   11    5   12 1     
   12    5   18 1     
   13    5   19 1     
   14    6   13 ar    
   15    6   20 1     
   16    7   14 ar    
   17    7   21 1     
   18    8   15 1     
   19    8   22 1     
   20   10   15 1     
   21   10   23 1     
   22   12   24 1     
   23   12   25 1     
   24   12   26 1     
   25   13   16 ar    
   26   13   27 1     
   27   14   16 ar    
   28   14   28 1     
   29   15   17 2     
   30   16   29 1     
@<TRIPOS>SUBSTRUCTURE
      1 RES1           1
@<TRIPOS>SET
DONOR_HYDROGENS      STATIC     ATOMS    <user>   **** ""
2 22 23
ATOM$RED        STATIC     ATOMS    COLORGROUP SYSTEM
2 22 23
@<TRIPOS>COMMENT
> <Gold.Version>
2022.3.0

> <Gold.Id.Protein>
unknown|3oxt_clean|pdb

> <Gold.Protein.RotatedTorsions>
[ 3607 3598 3597 3595 ] final  -85.06 input   60.01 | X-H torsion
[ 3527 3518 3517 3515 ] final  116.58 input   60.00 | X-H torsion
[ 3788 3779 3778 3776 ] final  -42.24 input   59.99 | X-H torsion
[ 3080 3073 3071 3068 ] final  -41.28 input   60.03 | X-H torsion
[ 5059 5050 5049 5047 ] final   81.61 input   60.00 | X-H torsion
[ 2545 2534 2533 2532 ] final -178.31 input   59.97 | X-H torsion
[  570  565  563  560 ] final  -76.96 input   59.99 | X-H torsion
[ 1886 1881 1880 1877 ] final  108.23 input   59.97 | X-H torsion
[ 3130 3121 3120 3118 ] final -124.70 input   60.01 | X-H torsion
[  590  585  584  581 ] final  168.27 input   60.02 | X-H torsion

> <Gold.Protein.ActiveResidues>
 LEU49   GLY50   THR51   GLY52   SER53   PHE54   LEU82   LYS83   GLN84   HIS87  
 GLY126  GLU127  MET128  PHE129  SER130  HIS131  LEU132  ARG133  ARG134  ILE135 
 GLY136  ARG137  ARG165  ASP166  LEU167  LYS168  PRO169  GLU170  ASN171  LEU173 
 ASP184  GLY186  PHE187  TPO197  LEU198  CYS199  GLY200  THR201  PRO202  GLU203 
 TYR204  LEU205  ILE209  ILE210  VAL226  LEU227  TYR229  GLU230  ALA233  GLY234 
 TYR235  PRO236  PRO237  PHE238  PHE239  ALA240  ASP241  GLN242  PRO243  ILE244 
 GLN245  ILE246  TYR247  LYS249  ARG256  PHE257  PRO258  SER259  ASN326  PHE327 
 ASP328  ASP329  TYR330 

> <Gold.Protein.RotatedAtoms>
   21.4865  -12.9511    6.9897 H   0  0  0  0  0  0  0  0  0  0  0  0  # atno 570  bound_to 565 
   16.9309  -11.3049   -2.5239 H   0  0  0  0  0  0  0  0  0  0  0  0  # atno 590  bound_to 585 
   27.8007   -4.9999   11.2524 H   0  0  0  0  0  0  0  0  0  0  0  0  # atno 1886 bound_to 1881
   20.1050   -4.9572    0.4784 H   0  0  0  0  0  0  0  0  0  0  0  0  # atno 2545 bound_to 2534
   19.5816   -3.9342    1.6735 H   0  0  0  0  0  0  0  0  0  0  0  0  # atno 2546 bound_to 2534
   19.5065   -3.4628    0.0859 H   0  0  0  0  0  0  0  0  0  0  0  0  # atno 2547 bound_to 2534
   17.9557   -3.0038   -0.9109 H   0  0  0  0  0  0  0  0  0  0  0  0  # atno 3080 bound_to 3073
   22.2299    5.2938    3.5310 H   0  0  0  0  0  0  0  0  0  0  0  0  # atno 3130 bound_to 3121
   17.2545   14.1362    8.0088 H   0  0  0  0  0  0  0  0  0  0  0  0  # atno 3527 bound_to 3518
   17.4240   13.7433   11.4826 H   0  0  0  0  0  0  0  0  0  0  0  0  # atno 3607 bound_to 3598
   10.5069   -0.5780   -3.2071 H   0  0  0  0  0  0  0  0  0  0  0  0  # atno 3788 bound_to 3779
   24.2687  -10.0488    8.3460 H   0  0  0  0  0  0  0  0  0  0  0  0  # atno 5059 bound_to 5050
   16.6284   13.4110   12.8626 LP  0  0  0  0  0  0  0  0  0  0  0  0  # atno 5367 bound_to 3598
   15.8042   13.5888   11.4641 LP  0  0  0  0  0  0  0  0  0  0  0  0  # atno 5368 bound_to 3598
   16.6557   12.6265    8.1178 LP  0  0  0  0  0  0  0  0  0  0  0  0  # atno 5371 bound_to 3518
   16.2373   13.5851    6.8637 LP  0  0  0  0  0  0  0  0  0  0  0  0  # atno 5372 bound_to 3518
    9.0255   -1.2458   -3.1222 LP  0  0  0  0  0  0  0  0  0  0  0  0  # atno 5429 bound_to 3779
    9.8020   -0.7981   -1.7572 LP  0  0  0  0  0  0  0  0  0  0  0  0  # atno 5430 bound_to 3779
   19.0443   -2.4388    0.1584 LP  0  0  0  0  0  0  0  0  0  0  0  0  # atno 5433 bound_to 3073
   19.1614   -2.0369   -1.4200 LP  0  0  0  0  0  0  0  0  0  0  0  0  # atno 5434 bound_to 3073
   24.5461   -9.5979    9.8842 LP  0  0  0  0  0  0  0  0  0  0  0  0  # atno 5443 bound_to 5050
   23.0146   -9.7566    9.3401 LP  0  0  0  0  0  0  0  0  0  0  0  0  # atno 5444 bound_to 5050
   20.1128  -13.6771    6.5055 LP  0  0  0  0  0  0  0  0  0  0  0  0  # atno 5447 bound_to 565 
   20.7790  -12.4950    5.5969 LP  0  0  0  0  0  0  0  0  0  0  0  0  # atno 5448 bound_to 565 
   26.2960   -4.6406   11.7573 LP  0  0  0  0  0  0  0  0  0  0  0  0  # atno 5453 bound_to 1881
   27.2479   -5.6214   12.6510 LP  0  0  0  0  0  0  0  0  0  0  0  0  # atno 5454 bound_to 1881
   22.9822    3.8570    3.3958 LP  0  0  0  0  0  0  0  0  0  0  0  0  # atno 5481 bound_to 3121
   21.5983    3.9796    4.2539 LP  0  0  0  0  0  0  0  0  0  0  0  0  # atno 5482 bound_to 3121
   18.1443  -12.3577   -2.2621 LP  0  0  0  0  0  0  0  0  0  0  0  0  # atno 5489 bound_to 585 
   17.9541  -11.0664   -1.2808 LP  0  0  0  0  0  0  0  0  0  0  0  0  # atno 5490 bound_to 585 

> <Gold.Score>
     Fitness  S(hb_ext) S(vdw_ext)  S(hb_int)    S(int)      intcor
     44.34      11.84      24.08       0.00      -0.62      -0.76

> <Gold.Goldscore.Fitness>
44.3362

> <Gold.Goldscore.Internal.Vdw>
-0.9131

> <Gold.Goldscore.Internal.Torsion>
-0.4714

> <Gold.Goldscore.External.Vdw>
24.0810

> <Gold.Goldscore.Internal.HBond>
0.0000

> <Gold.Goldscore.External.HBond>
11.8443

> <Gold.Goldscore.Internal.Correction>
-0.7650

> <Gold.Goldscore.Hbonds>
donor molecule, donor type, donor heavy atom, donor atom, acceptor molecule, acceptor atom, score
      P1  H  2534  2545       L1    17  0.84
      P1  H   580   587       L1     9  0.82
      L1  H    10    23       P1  2502  0.86

> <Gold.Goldscore.Internal.Vdw.Weighted>
-0.9131

> <Gold.Goldscore.Internal.Torsion.Weighted>
-0.4714

> <Gold.Goldscore.External.Vdw.Weighted>
33.1114

> <Gold.Goldscore.Internal.HBond.Weighted>
0.0000

> <Gold.Goldscore.External.HBond.Weighted>
11.8443

> <Gold.Goldscore.Internal.Correction.Weighted>
-0.7650

> <Gold.Rescore>
     Score     S(PLP)   S(hbond)     S(cho)   S(metal)  DE(clash)   DE(tors)     intcor
     45.65     -39.48       2.82       0.00       0.00       2.13       0.08       ----

> <Gold.PLP.Fitness>
45.6490

> <Gold.PLP.PLP>
-39.4843

> <Gold.PLP.part.hbond>
-5.0000

> <Gold.PLP.part.metal>
0.0000

> <Gold.PLP.part.buried>
0.4077

> <Gold.PLP.part.nonpolar>
-35.1442

> <Gold.PLP.part.repulsive>
0.5111

> <Gold.PLP.ligand.clash>
2.1316

> <Gold.PLP.ligand.torsion>
0.0759

> <Gold.PLP.Chemscore.Hbond>
2.8160

> <Gold.PLP.Chemscore.CHOScore>
0.0000

> <Gold.PLP.Chemscore.Metal>
0.0000

> <Gold.Chemscore.Hbonds>
donor molecule, donor type, donor heavy atom, donor atom, acceptor molecule, acceptor atom, score
      L1  H    10    23       P1  2502  0.52
      P1  H  2534  2545       L1    17  1.00
      P1  H   580   587       L1     9  0.67

> <Gold.PLP.Chemscore.Internal.Correction>
   9.000000E+99

