#       Name:                CT1002167954
#       Creating user name   hitesit
#       Creation time:       Sun Apr 16 22:50:43 2023


#       File generated by GOLD software.
#

@<TRIPOS>MOLECULE
CT1002167954|ligand_prepared|mol2|1|dock5
    29    30     1
SMALL
NO_CHARGES


@<TRIPOS>ATOM
      1 C1          20.8438  -7.9469  -1.0861 C.3            1 RES1               0.0000
      2 C2          21.4091  -8.6848  -2.3168 C.ar           1 RES1               0.0000
      3 C3          21.2241  -6.4788  -1.2547 C.2            1 RES1               0.0000
      4 C4          19.3410  -8.2044  -1.0873 C.2            1 RES1               0.0000
      5 C5          21.4137  -8.4504   0.2605 C.3            1 RES1               0.0000
      6 C6          21.9166  -9.9751  -2.1981 C.ar           1 RES1               0.0000
      7 C7          21.4273  -8.0902  -3.5757 C.ar           1 RES1               0.0000
      8 N8          20.2357  -5.6062  -1.6032 N.am           1 RES1               0.0000
      9 O9          22.3811  -6.0992  -1.1226 O.2            1 RES1               0.0000
     10 N10         18.5066  -7.1359  -1.2867 N.am           1 RES1               0.0000
     11 O11         18.8724  -9.3257  -0.9341 O.2            1 RES1               0.0000
     12 C12         21.0892  -7.5469   1.4397 C.3            1 RES1               0.0000
     13 C13         22.4214 -10.6480  -3.2985 C.ar           1 RES1               0.0000
     14 C14         21.9328  -8.7648  -4.6748 C.ar           1 RES1               0.0000
     15 C15         18.8867  -5.8535  -1.5753 C.2            1 RES1               0.0000
     16 C16         22.4294 -10.0435  -4.5375 C.ar           1 RES1               0.0000
     17 O17         18.0766  -4.9578  -1.7960 O.2            1 RES1               0.0000
     18 H18         21.0123  -9.4513   0.4616 H              1 RES1               0.0000
     19 H19         22.5036  -8.5377   0.1721 H              1 RES1               0.0000
     20 H20         21.9209 -10.4660  -1.2306 H              1 RES1               0.0000
     21 H21         21.0428  -7.0845  -3.7072 H              1 RES1               0.0000
     22 H22         20.5264  -4.6844  -1.9133 H              1 RES1               0.0000
     23 H23         17.5098  -7.3128  -1.2130 H              1 RES1               0.0000
     24 H24         21.5122  -7.9460   2.3593 H              1 RES1               0.0000
     25 H25         21.4954  -6.5495   1.2848 H              1 RES1               0.0000
     26 H26         20.0130  -7.4577   1.5726 H              1 RES1               0.0000
     27 H27         22.8124 -11.6537  -3.1849 H              1 RES1               0.0000
     28 H28         21.9377  -8.2849  -5.6479 H              1 RES1               0.0000
     29 H29         22.8246 -10.5709  -5.3994 H              1 RES1               0.0000
@<TRIPOS>BOND
    1    1    2 1     
    2    1    3 1     
    3    1    4 1     
    4    1    5 1     
    5    2    6 ar    
    6    2    7 ar    
    7    3    8 1     
    8    3    9 2     
    9    4   10 1     
   10    4   11 2     
   11    5   12 1     
   12    5   18 1     
   13    5   19 1     
   14    6   13 ar    
   15    6   20 1     
   16    7   14 ar    
   17    7   21 1     
   18    8   15 1     
   19    8   22 1     
   20   10   15 1     
   21   10   23 1     
   22   12   24 1     
   23   12   25 1     
   24   12   26 1     
   25   13   16 ar    
   26   13   27 1     
   27   14   16 ar    
   28   14   28 1     
   29   15   17 2     
   30   16   29 1     
@<TRIPOS>SUBSTRUCTURE
      1 RES1           1
@<TRIPOS>SET
DONOR_HYDROGENS      STATIC     ATOMS    <user>   **** ""
2 22 23
ATOM$RED        STATIC     ATOMS    COLORGROUP SYSTEM
2 22 23
@<TRIPOS>COMMENT
> <Gold.Version>
2022.3.0

> <Gold.Id.Protein>
unknown|3oxt_clean|pdb

> <Gold.Protein.RotatedTorsions>
[ 3607 3598 3597 3595 ] final -132.18 input   60.01 | X-H torsion
[ 3527 3518 3517 3515 ] final  -58.91 input   60.00 | X-H torsion
[ 3788 3779 3778 3776 ] final   44.82 input   59.99 | X-H torsion
[ 3080 3073 3071 3068 ] final  -38.51 input   60.03 | X-H torsion
[ 5059 5050 5049 5047 ] final  121.10 input   60.00 | X-H torsion
[ 2545 2534 2533 2532 ] final -163.79 input   59.97 | X-H torsion
[  570  565  563  560 ] final   59.13 input   59.99 | X-H torsion
[ 1886 1881 1880 1877 ] final  -95.11 input   59.97 | X-H torsion
[ 3130 3121 3120 3118 ] final -103.26 input   60.01 | X-H torsion
[  590  585  584  581 ] final  -85.57 input   60.02 | X-H torsion

> <Gold.Protein.ActiveResidues>
 LEU49   GLY50   THR51   GLY52   SER53   PHE54   LEU82   LYS83   GLN84   HIS87  
 GLY126  GLU127  MET128  PHE129  SER130  HIS131  LEU132  ARG133  ARG134  ILE135 
 GLY136  ARG137  ARG165  ASP166  LEU167  LYS168  PRO169  GLU170  ASN171  LEU173 
 ASP184  GLY186  PHE187  TPO197  LEU198  CYS199  GLY200  THR201  PRO202  GLU203 
 TYR204  LEU205  ILE209  ILE210  VAL226  LEU227  TYR229  GLU230  ALA233  GLY234 
 TYR235  PRO236  PRO237  PHE238  PHE239  ALA240  ASP241  GLN242  PRO243  ILE244 
 GLN245  ILE246  TYR247  LYS249  ARG256  PHE257  PRO258  SER259  ASN326  PHE327 
 ASP328  ASP329  TYR330 

> <Gold.Protein.RotatedAtoms>
   20.5623  -12.6377    5.5528 H   0  0  0  0  0  0  0  0  0  0  0  0  # atno 570  bound_to 565 
   17.7759  -10.9409   -1.3422 H   0  0  0  0  0  0  0  0  0  0  0  0  # atno 590  bound_to 585 
   26.7056   -5.3872   12.6713 H   0  0  0  0  0  0  0  0  0  0  0  0  # atno 1886 bound_to 1881
   20.1040   -4.9988    0.7166 H   0  0  0  0  0  0  0  0  0  0  0  0  # atno 2545 bound_to 2534
   19.4996   -3.7236    1.5870 H   0  0  0  0  0  0  0  0  0  0  0  0  # atno 2546 bound_to 2534
   19.5895   -3.6318   -0.0658 H   0  0  0  0  0  0  0  0  0  0  0  0  # atno 2547 bound_to 2534
   17.9599   -2.9921   -0.9544 H   0  0  0  0  0  0  0  0  0  0  0  0  # atno 3080 bound_to 3073
   21.9426    5.2561    3.7243 H   0  0  0  0  0  0  0  0  0  0  0  0  # atno 3130 bound_to 3121
   16.2027   12.7229    7.3752 H   0  0  0  0  0  0  0  0  0  0  0  0  # atno 3527 bound_to 3518
   17.5136   13.6163   12.2148 H   0  0  0  0  0  0  0  0  0  0  0  0  # atno 3607 bound_to 3598
   10.2610   -0.6003   -1.9415 H   0  0  0  0  0  0  0  0  0  0  0  0  # atno 3788 bound_to 3779
   23.6367  -10.0505    8.3400 H   0  0  0  0  0  0  0  0  0  0  0  0  # atno 5059 bound_to 5050
   15.9383   13.3988   12.5596 LP  0  0  0  0  0  0  0  0  0  0  0  0  # atno 5367 bound_to 3598
   16.4041   13.7288   11.0297 LP  0  0  0  0  0  0  0  0  0  0  0  0  # atno 5368 bound_to 3598
   16.7304   14.2477    7.1607 LP  0  0  0  0  0  0  0  0  0  0  0  0  # atno 5371 bound_to 3518
   17.2210   13.3861    8.4582 LP  0  0  0  0  0  0  0  0  0  0  0  0  # atno 5372 bound_to 3518
   10.1516   -0.7665   -3.5565 LP  0  0  0  0  0  0  0  0  0  0  0  0  # atno 5429 bound_to 3779
    8.9236   -1.2550   -2.5975 LP  0  0  0  0  0  0  0  0  0  0  0  0  # atno 5430 bound_to 3779
   19.0102   -2.4660    0.1715 LP  0  0  0  0  0  0  0  0  0  0  0  0  # atno 5433 bound_to 3073
   19.1914   -2.0215   -1.3893 LP  0  0  0  0  0  0  0  0  0  0  0  0  # atno 5434 bound_to 3073
   24.8701   -9.7515    9.3577 LP  0  0  0  0  0  0  0  0  0  0  0  0  # atno 5443 bound_to 5050
   23.3277   -9.6013    9.8727 LP  0  0  0  0  0  0  0  0  0  0  0  0  # atno 5444 bound_to 5050
   21.5691  -12.7630    6.8252 LP  0  0  0  0  0  0  0  0  0  0  0  0  # atno 5447 bound_to 565 
   20.2532  -13.7247    6.7238 LP  0  0  0  0  0  0  0  0  0  0  0  0  # atno 5448 bound_to 565 
   27.9965   -5.3567   11.6811 LP  0  0  0  0  0  0  0  0  0  0  0  0  # atno 5453 bound_to 1881
   26.6502   -4.5154   11.2984 LP  0  0  0  0  0  0  0  0  0  0  0  0  # atno 5454 bound_to 1881
   23.0664    4.1718    3.2662 LP  0  0  0  0  0  0  0  0  0  0  0  0  # atno 5481 bound_to 3121
   21.8034    3.7026    4.1889 LP  0  0  0  0  0  0  0  0  0  0  0  0  # atno 5482 bound_to 3121
   16.9754  -11.4880   -2.6495 LP  0  0  0  0  0  0  0  0  0  0  0  0  # atno 5489 bound_to 585 
   18.2724  -12.3025   -2.0829 LP  0  0  0  0  0  0  0  0  0  0  0  0  # atno 5490 bound_to 585 

> <Gold.Score>
     Fitness  S(hb_ext) S(vdw_ext)  S(hb_int)    S(int)      intcor
     33.97       7.89      19.44       0.00      -0.65      -0.76

> <Gold.Goldscore.Fitness>
33.9706

> <Gold.Goldscore.Internal.Vdw>
-0.8167

> <Gold.Goldscore.Internal.Torsion>
-0.6030

> <Gold.Goldscore.External.Vdw>
19.4403

> <Gold.Goldscore.Internal.HBond>
0.0000

> <Gold.Goldscore.External.HBond>
7.8949

> <Gold.Goldscore.Internal.Correction>
-0.7650

> <Gold.Goldscore.Hbonds>
donor molecule, donor type, donor heavy atom, donor atom, acceptor molecule, acceptor atom, score
      P1  H  3073  3080       L1    17  0.16
      P1  H  2583  2589       L1     9  1.00
      P1  H   580   587       L1    11  0.41
      P1  H   585   590       L1    11  0.41
      L1  H     8    22       P1  2501  0.65

> <Gold.Goldscore.Internal.Vdw.Weighted>
-0.8167

> <Gold.Goldscore.Internal.Torsion.Weighted>
-0.6030

> <Gold.Goldscore.External.Vdw.Weighted>
26.7304

> <Gold.Goldscore.Internal.HBond.Weighted>
0.0000

> <Gold.Goldscore.External.HBond.Weighted>
7.8949

> <Gold.Goldscore.Internal.Correction.Weighted>
-0.7650

> <Gold.Rescore>
     Score     S(PLP)   S(hbond)     S(cho)   S(metal)  DE(clash)   DE(tors)     intcor
     33.57     -29.17       1.75       0.00       0.00       0.00       0.43       ----

> <Gold.PLP.Fitness>
33.5655

> <Gold.PLP.PLP>
-29.1719

> <Gold.PLP.part.hbond>
-2.6724

> <Gold.PLP.part.metal>
0.0000

> <Gold.PLP.part.buried>
-6.3828

> <Gold.PLP.part.nonpolar>
-23.2980

> <Gold.PLP.part.repulsive>
3.0570

> <Gold.PLP.ligand.clash>
0.0000

> <Gold.PLP.ligand.torsion>
0.4295

> <Gold.PLP.Chemscore.Hbond>
1.7509

> <Gold.PLP.Chemscore.CHOScore>
0.0000

> <Gold.PLP.Chemscore.Metal>
0.0000

> <Gold.Chemscore.Hbonds>
donor molecule, donor type, donor heavy atom, donor atom, acceptor molecule, acceptor atom, score
      L1  H     8    22       P1  2501  0.31
      P1  H  3073  3080       L1    17  0.74
      P1  H  2583  2589       L1     9  0.99
      P1  H   585   590       L1    11  1.00

> <Gold.PLP.Chemscore.Internal.Correction>
   9.000000E+99

