#       Name:                CT1002167954
#       Creating user name   hitesit
#       Creation time:       Sun Apr 16 22:50:40 2023


#       File generated by GOLD software.
#

@<TRIPOS>MOLECULE
CT1002167954|ligand_prepared|mol2|1|dock3
    29    30     1
SMALL
NO_CHARGES


@<TRIPOS>ATOM
      1 C1          21.5457  -9.2046  -0.6130 C.3            1 RES1               0.0000
      2 C2          22.4497 -10.4157  -0.3053 C.ar           1 RES1               0.0000
      3 C3          20.1512  -9.5735  -0.1155 C.2            1 RES1               0.0000
      4 C4          22.1683  -8.0136   0.1072 C.2            1 RES1               0.0000
      5 C5          21.4548  -8.8589  -2.1176 C.3            1 RES1               0.0000
      6 C6          23.1979 -10.4617   0.8672 C.ar           1 RES1               0.0000
      7 C7          22.5437 -11.4937  -1.1815 C.ar           1 RES1               0.0000
      8 N8          19.7090  -8.9744   1.0271 N.am           1 RES1               0.0000
      9 O9          19.4657 -10.4069  -0.6950 O.2            1 RES1               0.0000
     10 N10         21.4617  -7.4425   1.1330 N.am           1 RES1               0.0000
     11 O11         23.2717  -7.5750  -0.1936 O.2            1 RES1               0.0000
     12 C12         20.8236  -7.5044  -2.3985 C.3            1 RES1               0.0000
     13 C13         24.0084 -11.5474   1.1549 C.ar           1 RES1               0.0000
     14 C14         23.3550 -12.5783  -0.8920 C.ar           1 RES1               0.0000
     15 C15         20.2739  -7.8882   1.6457 C.2            1 RES1               0.0000
     16 C16         24.0872 -12.6065   0.2758 C.ar           1 RES1               0.0000
     17 O17         19.7263  -7.3537   2.6057 O.2            1 RES1               0.0000
     18 H18         22.4652  -8.8730  -2.5448 H              1 RES1               0.0000
     19 H19         20.8662  -9.6343  -2.6232 H              1 RES1               0.0000
     20 H20         23.1506  -9.6364   1.5698 H              1 RES1               0.0000
     21 H21         21.9775 -11.4927  -2.1068 H              1 RES1               0.0000
     22 H22         18.8818  -9.3708   1.4619 H              1 RES1               0.0000
     23 H23         21.8577  -6.6078   1.5533 H              1 RES1               0.0000
     24 H24         20.7843  -7.3116  -3.4686 H              1 RES1               0.0000
     25 H25         19.8084  -7.4637  -2.0093 H              1 RES1               0.0000
     26 H26         21.3978  -6.7069  -1.9314 H              1 RES1               0.0000
     27 H27         24.5837 -11.5641   2.0747 H              1 RES1               0.0000
     28 H28         23.4144 -13.4094  -1.5870 H              1 RES1               0.0000
     29 H29         24.7218 -13.4570   0.5016 H              1 RES1               0.0000
@<TRIPOS>BOND
    1    1    2 1     
    2    1    3 1     
    3    1    4 1     
    4    1    5 1     
    5    2    6 ar    
    6    2    7 ar    
    7    3    8 1     
    8    3    9 2     
    9    4   10 1     
   10    4   11 2     
   11    5   12 1     
   12    5   18 1     
   13    5   19 1     
   14    6   13 ar    
   15    6   20 1     
   16    7   14 ar    
   17    7   21 1     
   18    8   15 1     
   19    8   22 1     
   20   10   15 1     
   21   10   23 1     
   22   12   24 1     
   23   12   25 1     
   24   12   26 1     
   25   13   16 ar    
   26   13   27 1     
   27   14   16 ar    
   28   14   28 1     
   29   15   17 2     
   30   16   29 1     
@<TRIPOS>SUBSTRUCTURE
      1 RES1           1
@<TRIPOS>SET
DONOR_HYDROGENS      STATIC     ATOMS    <user>   **** ""
2 22 23
ATOM$RED        STATIC     ATOMS    COLORGROUP SYSTEM
2 22 23
@<TRIPOS>COMMENT
> <Gold.Version>
2022.3.0

> <Gold.Id.Protein>
unknown|3oxt_clean|pdb

> <Gold.Protein.RotatedTorsions>
[ 3607 3598 3597 3595 ] final -179.30 input   60.01 | X-H torsion
[ 3527 3518 3517 3515 ] final -139.45 input   60.00 | X-H torsion
[ 3788 3779 3778 3776 ] final  116.12 input   59.99 | X-H torsion
[ 3080 3073 3071 3068 ] final -149.35 input   60.03 | X-H torsion
[ 5059 5050 5049 5047 ] final  120.86 input   60.00 | X-H torsion
[ 2545 2534 2533 2532 ] final -141.01 input   59.97 | X-H torsion
[  570  565  563  560 ] final  103.20 input   59.99 | X-H torsion
[ 1886 1881 1880 1877 ] final  -83.57 input   59.97 | X-H torsion
[ 3130 3121 3120 3118 ] final -163.97 input   60.01 | X-H torsion
[  590  585  584  581 ] final  -51.16 input   60.02 | X-H torsion

> <Gold.Protein.ActiveResidues>
 LEU49   GLY50   THR51   GLY52   SER53   PHE54   LEU82   LYS83   GLN84   HIS87  
 GLY126  GLU127  MET128  PHE129  SER130  HIS131  LEU132  ARG133  ARG134  ILE135 
 GLY136  ARG137  ARG165  ASP166  LEU167  LYS168  PRO169  GLU170  ASN171  LEU173 
 ASP184  GLY186  PHE187  TPO197  LEU198  CYS199  GLY200  THR201  PRO202  GLU203 
 TYR204  LEU205  ILE209  ILE210  VAL226  LEU227  TYR229  GLU230  ALA233  GLY234 
 TYR235  PRO236  PRO237  PHE238  PHE239  ALA240  ASP241  GLN242  PRO243  ILE244 
 GLN245  ILE246  TYR247  LYS249  ARG256  PHE257  PRO258  SER259  ASN326  PHE327 
 ASP328  ASP329  TYR330 

> <Gold.Protein.RotatedAtoms>
   20.1031  -13.1351    5.7408 H   0  0  0  0  0  0  0  0  0  0  0  0  # atno 570  bound_to 565 
   18.1785  -11.3162   -1.2776 H   0  0  0  0  0  0  0  0  0  0  0  0  # atno 590  bound_to 585 
   26.5596   -5.2847   12.6116 H   0  0  0  0  0  0  0  0  0  0  0  0  # atno 1886 bound_to 1881
   20.0549   -4.9508    1.0883 H   0  0  0  0  0  0  0  0  0  0  0  0  # atno 2545 bound_to 2534
   19.4025   -3.4486    1.3464 H   0  0  0  0  0  0  0  0  0  0  0  0  # atno 2546 bound_to 2534
   19.7356   -3.9547   -0.1967 H   0  0  0  0  0  0  0  0  0  0  0  0  # atno 2547 bound_to 2534
   18.8902   -2.5537    0.1937 H   0  0  0  0  0  0  0  0  0  0  0  0  # atno 3080 bound_to 3073
   22.7411    5.0426    3.2635 H   0  0  0  0  0  0  0  0  0  0  0  0  # atno 3130 bound_to 3121
   16.3559   13.8182    6.8817 H   0  0  0  0  0  0  0  0  0  0  0  0  # atno 3527 bound_to 3518
   17.0327   13.4660   12.7681 H   0  0  0  0  0  0  0  0  0  0  0  0  # atno 3607 bound_to 3598
    9.2667   -1.0499   -1.9340 H   0  0  0  0  0  0  0  0  0  0  0  0  # atno 3788 bound_to 3779
   23.6404  -10.0509    8.3388 H   0  0  0  0  0  0  0  0  0  0  0  0  # atno 5059 bound_to 5050
   15.6844   13.5038   11.8579 LP  0  0  0  0  0  0  0  0  0  0  0  0  # atno 5367 bound_to 3598
   17.1423   13.7752   11.1743 LP  0  0  0  0  0  0  0  0  0  0  0  0  # atno 5368 bound_to 3598
   17.3016   13.9619    8.1987 LP  0  0  0  0  0  0  0  0  0  0  0  0  # atno 5371 bound_to 3518
   16.4956   12.5699    7.9169 LP  0  0  0  0  0  0  0  0  0  0  0  0  # atno 5372 bound_to 3518
   10.6332   -0.4818   -2.6105 LP  0  0  0  0  0  0  0  0  0  0  0  0  # atno 5429 bound_to 3779
    9.4433   -1.0868   -3.5511 LP  0  0  0  0  0  0  0  0  0  0  0  0  # atno 5430 bound_to 3779
   19.2823   -1.9787   -1.2771 LP  0  0  0  0  0  0  0  0  0  0  0  0  # atno 5433 bound_to 3073
   17.9823   -2.9504   -1.0970 LP  0  0  0  0  0  0  0  0  0  0  0  0  # atno 5434 bound_to 3073
   24.8693   -9.7504    9.3615 LP  0  0  0  0  0  0  0  0  0  0  0  0  # atno 5443 bound_to 5050
   23.3247   -9.6020    9.8702 LP  0  0  0  0  0  0  0  0  0  0  0  0  # atno 5444 bound_to 5050
   21.4737  -12.4027    6.2240 LP  0  0  0  0  0  0  0  0  0  0  0  0  # atno 5447 bound_to 565 
   20.8109  -13.5842    7.1357 LP  0  0  0  0  0  0  0  0  0  0  0  0  # atno 5448 bound_to 565 
   27.9846   -5.4523   11.8441 LP  0  0  0  0  0  0  0  0  0  0  0  0  # atno 5453 bound_to 1881
   26.8091   -4.5229   11.1955 LP  0  0  0  0  0  0  0  0  0  0  0  0  # atno 5454 bound_to 1881
   22.5903    3.4922    3.7348 LP  0  0  0  0  0  0  0  0  0  0  0  0  # atno 5481 bound_to 3121
   21.4753    4.5973    4.1844 LP  0  0  0  0  0  0  0  0  0  0  0  0  # atno 5482 bound_to 3121
   16.9365  -11.0572   -2.2972 LP  0  0  0  0  0  0  0  0  0  0  0  0  # atno 5489 bound_to 585 
   17.9060  -12.3555   -2.5001 LP  0  0  0  0  0  0  0  0  0  0  0  0  # atno 5490 bound_to 585 

> <Gold.Score>
     Fitness  S(hb_ext) S(vdw_ext)  S(hb_int)    S(int)      intcor
     29.73       3.12      19.90       0.00      -0.75      -0.76

> <Gold.Goldscore.Fitness>
29.7311

> <Gold.Goldscore.Internal.Vdw>
-0.9032

> <Gold.Goldscore.Internal.Torsion>
-0.6123

> <Gold.Goldscore.External.Vdw>
19.9028

> <Gold.Goldscore.Internal.HBond>
0.0000

> <Gold.Goldscore.External.HBond>
3.1153

> <Gold.Goldscore.Internal.Correction>
-0.7650

> <Gold.Goldscore.Hbonds>
donor molecule, donor type, donor heavy atom, donor atom, acceptor molecule, acceptor atom, score
      P1  H  2534  2545       L1    17  0.08
      P1  H   580   587       L1     9  0.31
      P1  H   585   590       L1     9  1.00

> <Gold.Goldscore.Internal.Vdw.Weighted>
-0.9032

> <Gold.Goldscore.Internal.Torsion.Weighted>
-0.6123

> <Gold.Goldscore.External.Vdw.Weighted>
27.3664

> <Gold.Goldscore.Internal.HBond.Weighted>
0.0000

> <Gold.Goldscore.External.HBond.Weighted>
3.1153

> <Gold.Goldscore.Internal.Correction.Weighted>
-0.7650

> <Gold.Rescore>
     Score     S(PLP)   S(hbond)     S(cho)   S(metal)  DE(clash)   DE(tors)     intcor
     32.87     -29.13       2.00       0.00       0.00       2.09       0.08       ----

> <Gold.PLP.Fitness>
32.8735

> <Gold.PLP.PLP>
-29.1321

> <Gold.PLP.part.hbond>
-2.0000

> <Gold.PLP.part.metal>
0.0000

> <Gold.PLP.part.buried>
-6.6277

> <Gold.PLP.part.nonpolar>
-22.9988

> <Gold.PLP.part.repulsive>
1.2175

> <Gold.PLP.ligand.clash>
2.0942

> <Gold.PLP.ligand.torsion>
0.0822

> <Gold.PLP.Chemscore.Hbond>
2.0000

> <Gold.PLP.Chemscore.CHOScore>
0.0000

> <Gold.PLP.Chemscore.Metal>
0.0000

> <Gold.Chemscore.Hbonds>
donor molecule, donor type, donor heavy atom, donor atom, acceptor molecule, acceptor atom, score
      P1  H   580   587       L1     9  1.00
      P1  H   585   590       L1     9  1.00

> <Gold.PLP.Chemscore.Internal.Correction>
   9.000000E+99

