#       Name:                CT1002167954
#       Creating user name   hitesit
#       Creation time:       Sun Apr 16 22:50:44 2023


#       File generated by GOLD software.
#

@<TRIPOS>MOLECULE
CT1002167954|ligand_prepared|mol2|1|dock6
    29    30     1
SMALL
NO_CHARGES


@<TRIPOS>ATOM
      1 C1          20.8338  -8.8789  -2.2845 C.3            1 RES1               0.0000
      2 C2          21.9292  -9.7773  -1.6747 C.ar           1 RES1               0.0000
      3 C3          21.4150  -7.4690  -2.3352 C.2            1 RES1               0.0000
      4 C4          20.5114  -9.4685  -3.6531 C.2            1 RES1               0.0000
      5 C5          19.5258  -8.8416  -1.4602 C.3            1 RES1               0.0000
      6 C6          22.1749  -9.7645  -0.3049 C.ar           1 RES1               0.0000
      7 C7          22.6989 -10.6245  -2.4674 C.ar           1 RES1               0.0000
      8 N8          21.7863  -6.9821  -3.5538 N.am           1 RES1               0.0000
      9 O9          21.5818  -6.8096  -1.3165 O.2            1 RES1               0.0000
     10 N10         20.8143  -8.7218  -4.7614 N.am           1 RES1               0.0000
     11 O11         20.0131 -10.5799  -3.7822 O.2            1 RES1               0.0000
     12 C12         18.3727  -8.1506  -2.1709 C.3            1 RES1               0.0000
     13 C13         23.1526 -10.5716   0.2526 C.ar           1 RES1               0.0000
     14 C14         23.6764 -11.4306  -1.9077 C.ar           1 RES1               0.0000
     15 C15         21.4653  -7.5184  -4.7748 C.2            1 RES1               0.0000
     16 C16         23.9037 -11.4054  -0.5482 C.ar           1 RES1               0.0000
     17 O17         21.7512  -6.9331  -5.8155 O.2            1 RES1               0.0000
     18 H18         19.2286  -9.8705  -1.2228 H              1 RES1               0.0000
     19 H19         19.7195  -8.3217  -0.5138 H              1 RES1               0.0000
     20 H20         21.5955  -9.1130   0.3408 H              1 RES1               0.0000
     21 H21         22.5383 -10.6601  -3.5395 H              1 RES1               0.0000
     22 H22         22.3554  -6.1416  -3.5575 H              1 RES1               0.0000
     23 H23         20.5278  -9.0979  -5.6597 H              1 RES1               0.0000
     24 H24         17.4799  -8.1522  -1.5491 H              1 RES1               0.0000
     25 H25         18.6244  -7.1172  -2.3998 H              1 RES1               0.0000
     26 H26         18.1363  -8.6567  -3.1046 H              1 RES1               0.0000
     27 H27         23.3285 -10.5470   1.3230 H              1 RES1               0.0000
     28 H28         24.2655 -12.0849  -2.5419 H              1 RES1               0.0000
     29 H29         24.6693 -12.0379  -0.1111 H              1 RES1               0.0000
@<TRIPOS>BOND
    1    1    2 1     
    2    1    3 1     
    3    1    4 1     
    4    1    5 1     
    5    2    6 ar    
    6    2    7 ar    
    7    3    8 1     
    8    3    9 2     
    9    4   10 1     
   10    4   11 2     
   11    5   12 1     
   12    5   18 1     
   13    5   19 1     
   14    6   13 ar    
   15    6   20 1     
   16    7   14 ar    
   17    7   21 1     
   18    8   15 1     
   19    8   22 1     
   20   10   15 1     
   21   10   23 1     
   22   12   24 1     
   23   12   25 1     
   24   12   26 1     
   25   13   16 ar    
   26   13   27 1     
   27   14   16 ar    
   28   14   28 1     
   29   15   17 2     
   30   16   29 1     
@<TRIPOS>SUBSTRUCTURE
      1 RES1           1
@<TRIPOS>SET
DONOR_HYDROGENS      STATIC     ATOMS    <user>   **** ""
2 22 23
ATOM$RED        STATIC     ATOMS    COLORGROUP SYSTEM
2 22 23
@<TRIPOS>COMMENT
> <Gold.Version>
2022.3.0

> <Gold.Id.Protein>
unknown|3oxt_clean|pdb

> <Gold.Protein.RotatedTorsions>
[ 3607 3598 3597 3595 ] final   11.60 input   60.01 | X-H torsion
[ 3527 3518 3517 3515 ] final -105.66 input   60.00 | X-H torsion
[ 3788 3779 3778 3776 ] final  -44.90 input   59.99 | X-H torsion
[ 3080 3073 3071 3068 ] final  -40.34 input   60.03 | X-H torsion
[ 5059 5050 5049 5047 ] final  -61.46 input   60.00 | X-H torsion
[ 2545 2534 2533 2532 ] final  118.17 input   59.97 | X-H torsion
[  570  565  563  560 ] final  -81.39 input   59.99 | X-H torsion
[ 1886 1881 1880 1877 ] final  113.81 input   59.97 | X-H torsion
[ 3130 3121 3120 3118 ] final   80.55 input   60.01 | X-H torsion
[  590  585  584  581 ] final  156.00 input   60.02 | X-H torsion

> <Gold.Protein.ActiveResidues>
 LEU49   GLY50   THR51   GLY52   SER53   PHE54   LEU82   LYS83   GLN84   HIS87  
 GLY126  GLU127  MET128  PHE129  SER130  HIS131  LEU132  ARG133  ARG134  ILE135 
 GLY136  ARG137  ARG165  ASP166  LEU167  LYS168  PRO169  GLU170  ASN171  LEU173 
 ASP184  GLY186  PHE187  TPO197  LEU198  CYS199  GLY200  THR201  PRO202  GLU203 
 TYR204  LEU205  ILE209  ILE210  VAL226  LEU227  TYR229  GLU230  ALA233  GLY234 
 TYR235  PRO236  PRO237  PHE238  PHE239  ALA240  ASP241  GLN242  PRO243  ILE244 
 GLN245  ILE246  TYR247  LYS249  ARG256  PHE257  PRO258  SER259  ASN326  PHE327 
 ASP328  ASP329  TYR330 

> <Gold.Protein.RotatedAtoms>
   21.4549  -13.0038    7.0281 H   0  0  0  0  0  0  0  0  0  0  0  0  # atno 570  bound_to 565 
   16.9711  -11.4685   -2.6320 H   0  0  0  0  0  0  0  0  0  0  0  0  # atno 590  bound_to 585 
   27.8505   -5.0549   11.3053 H   0  0  0  0  0  0  0  0  0  0  0  0  # atno 1886 bound_to 1881
   19.8586   -4.2482   -0.1936 H   0  0  0  0  0  0  0  0  0  0  0  0  # atno 2545 bound_to 2534
   19.9741   -4.8089    1.3624 H   0  0  0  0  0  0  0  0  0  0  0  0  # atno 2546 bound_to 2534
   19.3603   -3.2972    1.0685 H   0  0  0  0  0  0  0  0  0  0  0  0  # atno 2547 bound_to 2534
   17.9569   -3.0000   -0.9257 H   0  0  0  0  0  0  0  0  0  0  0  0  # atno 3080 bound_to 3073
   22.6437    3.5211    3.6916 H   0  0  0  0  0  0  0  0  0  0  0  0  # atno 3130 bound_to 3121
   16.1600   13.3119    6.9237 H   0  0  0  0  0  0  0  0  0  0  0  0  # atno 3527 bound_to 3518
   16.0585   13.6620   11.1912 H   0  0  0  0  0  0  0  0  0  0  0  0  # atno 3607 bound_to 3598
   10.4855   -0.5902   -3.2430 H   0  0  0  0  0  0  0  0  0  0  0  0  # atno 3788 bound_to 3779
   24.2115   -9.5520   10.0489 H   0  0  0  0  0  0  0  0  0  0  0  0  # atno 5059 bound_to 5050
   17.5518   13.6928   11.8371 LP  0  0  0  0  0  0  0  0  0  0  0  0  # atno 5367 bound_to 3598
   16.2559   13.3888   12.7831 LP  0  0  0  0  0  0  0  0  0  0  0  0  # atno 5368 bound_to 3598
   17.1565   14.2774    7.7750 LP  0  0  0  0  0  0  0  0  0  0  0  0  # atno 5371 bound_to 3518
   16.8379   12.7637    8.2983 LP  0  0  0  0  0  0  0  0  0  0  0  0  # atno 5372 bound_to 3518
    9.0073   -1.2513   -3.0828 LP  0  0  0  0  0  0  0  0  0  0  0  0  # atno 5429 bound_to 3779
    9.8419   -0.7803   -1.7606 LP  0  0  0  0  0  0  0  0  0  0  0  0  # atno 5430 bound_to 3779
   19.0329   -2.4480    0.1631 LP  0  0  0  0  0  0  0  0  0  0  0  0  # atno 5433 bound_to 3073
   19.1717   -2.0316   -1.4098 LP  0  0  0  0  0  0  0  0  0  0  0  0  # atno 5434 bound_to 3073
   23.0268   -9.8622    8.9781 LP  0  0  0  0  0  0  0  0  0  0  0  0  # atno 5443 bound_to 5050
   24.5916   -9.9930    8.5298 LP  0  0  0  0  0  0  0  0  0  0  0  0  # atno 5444 bound_to 5050
   20.0831  -13.6549    6.4427 LP  0  0  0  0  0  0  0  0  0  0  0  0  # atno 5447 bound_to 565 
   20.8405  -12.4642    5.6211 LP  0  0  0  0  0  0  0  0  0  0  0  0  # atno 5448 bound_to 565 
   26.3312   -4.6079   11.6791 LP  0  0  0  0  0  0  0  0  0  0  0  0  # atno 5453 bound_to 1881
   27.1626   -5.5986   12.6760 LP  0  0  0  0  0  0  0  0  0  0  0  0  # atno 5454 bound_to 1881
   21.4707    4.5259    4.2045 LP  0  0  0  0  0  0  0  0  0  0  0  0  # atno 5481 bound_to 3121
   22.6930    5.0959    3.2836 LP  0  0  0  0  0  0  0  0  0  0  0  0  # atno 5482 bound_to 3121
   18.2595  -12.3109   -2.1036 LP  0  0  0  0  0  0  0  0  0  0  0  0  # atno 5489 bound_to 585 
   17.7984  -10.9485   -1.3305 LP  0  0  0  0  0  0  0  0  0  0  0  0  # atno 5490 bound_to 585 

> <Gold.Score>
     Fitness  S(hb_ext) S(vdw_ext)  S(hb_int)    S(int)      intcor
     30.10       1.89      21.34       0.00      -1.13      -0.76

> <Gold.Goldscore.Fitness>
30.0971

> <Gold.Goldscore.Internal.Vdw>
-1.3829

> <Gold.Goldscore.Internal.Torsion>
-0.5108

> <Gold.Goldscore.External.Vdw>
21.3352

> <Gold.Goldscore.Internal.HBond>
0.0000

> <Gold.Goldscore.External.HBond>
1.8899

> <Gold.Goldscore.Internal.Correction>
-0.7650

> <Gold.Goldscore.Hbonds>
donor molecule, donor type, donor heavy atom, donor atom, acceptor molecule, acceptor atom, score
      P1  H  2583  2589       L1     9  0.12
      L1  H     8    22       P1  2502  0.27

> <Gold.Goldscore.Internal.Vdw.Weighted>
-1.3829

> <Gold.Goldscore.Internal.Torsion.Weighted>
-0.5108

> <Gold.Goldscore.External.Vdw.Weighted>
29.3359

> <Gold.Goldscore.Internal.HBond.Weighted>
0.0000

> <Gold.Goldscore.External.HBond.Weighted>
1.8899

> <Gold.Goldscore.Internal.Correction.Weighted>
-0.7650

> <Gold.Rescore>
     Score     S(PLP)   S(hbond)     S(cho)   S(metal)  DE(clash)   DE(tors)     intcor
     31.41     -27.59       1.78       0.00       0.00       1.22       0.16       ----

> <Gold.PLP.Fitness>
31.4079

> <Gold.PLP.PLP>
-27.5948

> <Gold.PLP.part.hbond>
-4.8918

> <Gold.PLP.part.metal>
0.0000

> <Gold.PLP.part.buried>
-6.6749

> <Gold.PLP.part.nonpolar>
-16.7880

> <Gold.PLP.part.repulsive>
0.3820

> <Gold.PLP.ligand.clash>
1.2152

> <Gold.PLP.ligand.torsion>
0.1619

> <Gold.PLP.Chemscore.Hbond>
1.7840

> <Gold.PLP.Chemscore.CHOScore>
0.0000

> <Gold.PLP.Chemscore.Metal>
0.0000

> <Gold.Chemscore.Hbonds>
donor molecule, donor type, donor heavy atom, donor atom, acceptor molecule, acceptor atom, score
      L1  H     8    22       P1  2502  0.95

> <Gold.PLP.Chemscore.Internal.Correction>
   9.000000E+99

