#       Name:                CT1002167954
#       Creating user name   hitesit
#       Creation time:       Sun Apr 16 22:50:50 2023


#       File generated by GOLD software.
#

@<TRIPOS>MOLECULE
CT1002167954|ligand_prepared|mol2|1|dock10
    29    30     1
SMALL
NO_CHARGES


@<TRIPOS>ATOM
      1 C1          23.9325  -8.6879   2.5078 C.3            1 RES1               0.0000
      2 C2          23.9541 -10.0445   1.7743 C.ar           1 RES1               0.0000
      3 C3          23.6128  -7.6345   1.4512 C.2            1 RES1               0.0000
      4 C4          22.8781  -8.8113   3.6022 C.2            1 RES1               0.0000
      5 C5          25.2762  -8.3188   3.1785 C.3            1 RES1               0.0000
      6 C6          24.3881 -11.1953   2.4255 C.ar           1 RES1               0.0000
      7 C7          23.5412 -10.1611   0.4497 C.ar           1 RES1               0.0000
      8 N8          22.3628  -7.0892   1.4606 N.am           1 RES1               0.0000
      9 O9          24.4319  -7.3161   0.5980 O.2            1 RES1               0.0000
     10 N10         21.7575  -8.0287   3.5053 N.am           1 RES1               0.0000
     11 O11         22.9999  -9.5913   4.5387 O.2            1 RES1               0.0000
     12 C12         25.2594  -6.9725   3.8851 C.3            1 RES1               0.0000
     13 C13         24.4059 -12.4190   1.7770 C.ar           1 RES1               0.0000
     14 C14         23.5601 -11.3858  -0.1970 C.ar           1 RES1               0.0000
     15 C15         21.4379  -7.1956   2.4680 C.2            1 RES1               0.0000
     16 C16         23.9916 -12.5152   0.4656 C.ar           1 RES1               0.0000
     17 O17         20.3851  -6.5654   2.4266 O.2            1 RES1               0.0000
     18 H18         25.5324  -9.0972   3.9077 H              1 RES1               0.0000
     19 H19         26.0613  -8.3056   2.4124 H              1 RES1               0.0000
     20 H20         24.7202 -11.1386   3.4567 H              1 RES1               0.0000
     21 H21         23.1987  -9.2858  -0.0917 H              1 RES1               0.0000
     22 H22         22.0907  -6.5526   0.6431 H              1 RES1               0.0000
     23 H23         21.1007  -8.0710   4.2781 H              1 RES1               0.0000
     24 H24         26.2260  -6.7625   4.3382 H              1 RES1               0.0000
     25 H25         25.0325  -6.1718   3.1843 H              1 RES1               0.0000
     26 H26         24.5067  -6.9587   4.6707 H              1 RES1               0.0000
     27 H27         24.7478 -13.3046   2.3025 H              1 RES1               0.0000
     28 H28         23.2336 -11.4568  -1.2293 H              1 RES1               0.0000
     29 H29         24.0053 -13.4740  -0.0421 H              1 RES1               0.0000
@<TRIPOS>BOND
    1    1    2 1     
    2    1    3 1     
    3    1    4 1     
    4    1    5 1     
    5    2    6 ar    
    6    2    7 ar    
    7    3    8 1     
    8    3    9 2     
    9    4   10 1     
   10    4   11 2     
   11    5   12 1     
   12    5   18 1     
   13    5   19 1     
   14    6   13 ar    
   15    6   20 1     
   16    7   14 ar    
   17    7   21 1     
   18    8   15 1     
   19    8   22 1     
   20   10   15 1     
   21   10   23 1     
   22   12   24 1     
   23   12   25 1     
   24   12   26 1     
   25   13   16 ar    
   26   13   27 1     
   27   14   16 ar    
   28   14   28 1     
   29   15   17 2     
   30   16   29 1     
@<TRIPOS>SUBSTRUCTURE
      1 RES1           1
@<TRIPOS>SET
DONOR_HYDROGENS      STATIC     ATOMS    <user>   **** ""
2 22 23
ATOM$RED        STATIC     ATOMS    COLORGROUP SYSTEM
2 22 23
@<TRIPOS>COMMENT
> <Gold.Version>
2022.3.0

> <Gold.Id.Protein>
unknown|3oxt_clean|pdb

> <Gold.Protein.RotatedTorsions>
[ 3607 3598 3597 3595 ] final -131.65 input   60.01 | X-H torsion
[ 3527 3518 3517 3515 ] final  173.98 input   60.00 | X-H torsion
[ 3788 3779 3778 3776 ] final  -30.38 input   59.99 | X-H torsion
[ 3080 3073 3071 3068 ] final   30.84 input   60.03 | X-H torsion
[ 5059 5050 5049 5047 ] final  177.16 input   60.00 | X-H torsion
[ 2545 2534 2533 2532 ] final  116.55 input   59.97 | X-H torsion
[  570  565  563  560 ] final  146.83 input   59.99 | X-H torsion
[ 1886 1881 1880 1877 ] final   -2.09 input   59.97 | X-H torsion
[ 3130 3121 3120 3118 ] final  -95.51 input   60.01 | X-H torsion
[  590  585  584  581 ] final  104.10 input   60.02 | X-H torsion

> <Gold.Protein.ActiveResidues>
 LEU49   GLY50   THR51   GLY52   SER53   PHE54   LEU82   LYS83   GLN84   HIS87  
 GLY126  GLU127  MET128  PHE129  SER130  HIS131  LEU132  ARG133  ARG134  ILE135 
 GLY136  ARG137  ARG165  ASP166  LEU167  LYS168  PRO169  GLU170  ASN171  LEU173 
 ASP184  GLY186  PHE187  TPO197  LEU198  CYS199  GLY200  THR201  PRO202  GLU203 
 TYR204  LEU205  ILE209  ILE210  VAL226  LEU227  TYR229  GLU230  ALA233  GLY234 
 TYR235  PRO236  PRO237  PHE238  PHE239  ALA240  ASP241  GLN242  PRO243  ILE244 
 GLN245  ILE246  TYR247  LYS249  ARG256  PHE257  PRO258  SER259  ASN326  PHE327 
 ASP328  ASP329  TYR330 

> <Gold.Protein.RotatedAtoms>
   20.0320  -13.5769    6.2738 H   0  0  0  0  0  0  0  0  0  0  0  0  # atno 570  bound_to 565 
   17.4483  -12.1248   -2.7475 H   0  0  0  0  0  0  0  0  0  0  0  0  # atno 590  bound_to 585 
   26.3680   -4.5882   11.6259 H   0  0  0  0  0  0  0  0  0  0  0  0  # atno 1886 bound_to 1881
   19.8486   -4.2236   -0.1980 H   0  0  0  0  0  0  0  0  0  0  0  0  # atno 2545 bound_to 2534
   19.9821   -4.8241    1.3416 H   0  0  0  0  0  0  0  0  0  0  0  0  # atno 2546 bound_to 2534
   19.3624   -3.3067    1.0936 H   0  0  0  0  0  0  0  0  0  0  0  0  # atno 2547 bound_to 2534
   18.5476   -2.4307   -1.6427 H   0  0  0  0  0  0  0  0  0  0  0  0  # atno 3080 bound_to 3073
   21.8479    5.2118    3.7957 H   0  0  0  0  0  0  0  0  0  0  0  0  # atno 3130 bound_to 3121
   16.8049   14.2830    7.2433 H   0  0  0  0  0  0  0  0  0  0  0  0  # atno 3527 bound_to 3518
   17.5160   13.6181   12.2066 H   0  0  0  0  0  0  0  0  0  0  0  0  # atno 3607 bound_to 3598
   10.5829   -0.5315   -3.0354 H   0  0  0  0  0  0  0  0  0  0  0  0  # atno 3788 bound_to 3779
   23.0394   -9.8698    8.9594 H   0  0  0  0  0  0  0  0  0  0  0  0  # atno 5059 bound_to 5050
   15.9443   13.3982   12.5660 LP  0  0  0  0  0  0  0  0  0  0  0  0  # atno 5367 bound_to 3598
   16.3956   13.7276   11.0316 LP  0  0  0  0  0  0  0  0  0  0  0  0  # atno 5368 bound_to 3598
   17.1791   13.2776    8.4674 LP  0  0  0  0  0  0  0  0  0  0  0  0  # atno 5371 bound_to 3518
   16.1663   12.7864    7.2844 LP  0  0  0  0  0  0  0  0  0  0  0  0  # atno 5372 bound_to 3518
    9.1260   -1.2118   -3.2856 LP  0  0  0  0  0  0  0  0  0  0  0  0  # atno 5429 bound_to 3779
    9.6250   -0.8789   -1.7668 LP  0  0  0  0  0  0  0  0  0  0  0  0  # atno 5430 bound_to 3779
   18.1543   -3.0121   -0.1747 LP  0  0  0  0  0  0  0  0  0  0  0  0  # atno 5433 bound_to 3073
   19.4553   -2.0408   -0.3498 LP  0  0  0  0  0  0  0  0  0  0  0  0  # atno 5434 bound_to 3073
   24.6080   -9.9885    8.5451 LP  0  0  0  0  0  0  0  0  0  0  0  0  # atno 5443 bound_to 5050
   24.1918   -9.5464   10.0610 LP  0  0  0  0  0  0  0  0  0  0  0  0  # atno 5444 bound_to 5050
   21.0015  -12.3993    5.7064 LP  0  0  0  0  0  0  0  0  0  0  0  0  # atno 5447 bound_to 565 
   21.3546  -13.1428    7.1168 LP  0  0  0  0  0  0  0  0  0  0  0  0  # atno 5448 bound_to 565 
   27.0995   -5.5788   12.6897 LP  0  0  0  0  0  0  0  0  0  0  0  0  # atno 5453 bound_to 1881
   27.8871   -5.0978   11.3425 LP  0  0  0  0  0  0  0  0  0  0  0  0  # atno 5454 bound_to 1881
   23.0699    4.2952    3.2343 LP  0  0  0  0  0  0  0  0  0  0  0  0  # atno 5481 bound_to 3121
   21.8953    3.6239    4.1489 LP  0  0  0  0  0  0  0  0  0  0  0  0  # atno 5482 bound_to 3121
   18.4131  -11.7939   -1.4792 LP  0  0  0  0  0  0  0  0  0  0  0  0  # atno 5489 bound_to 585 
   17.1644  -10.8049   -1.8385 LP  0  0  0  0  0  0  0  0  0  0  0  0  # atno 5490 bound_to 585 

> <Gold.Score>
     Fitness  S(hb_ext) S(vdw_ext)  S(hb_int)    S(int)      intcor
     29.36       5.22      18.88       0.00      -1.82      -0.76

> <Gold.Goldscore.Fitness>
29.3636

> <Gold.Goldscore.Internal.Vdw>
-2.2073

> <Gold.Goldscore.Internal.Torsion>
-0.3690

> <Gold.Goldscore.External.Vdw>
18.8789

> <Gold.Goldscore.Internal.HBond>
0.0000

> <Gold.Goldscore.External.HBond>
5.2229

> <Gold.Goldscore.Internal.Correction>
-0.7585

> <Gold.Goldscore.Hbonds>
donor molecule, donor type, donor heavy atom, donor atom, acceptor molecule, acceptor atom, score
      P1  H  2534  2546       L1    17  0.87

> <Gold.Goldscore.Internal.Vdw.Weighted>
-2.2073

> <Gold.Goldscore.Internal.Torsion.Weighted>
-0.3690

> <Gold.Goldscore.External.Vdw.Weighted>
25.9584

> <Gold.Goldscore.Internal.HBond.Weighted>
0.0000

> <Gold.Goldscore.External.HBond.Weighted>
5.2229

> <Gold.Goldscore.Internal.Correction.Weighted>
-0.7585

> <Gold.Rescore>
     Score     S(PLP)   S(hbond)     S(cho)   S(metal)  DE(clash)   DE(tors)     intcor
     15.07     -17.12       0.00       0.00       0.00       1.19       0.43       ----

> <Gold.PLP.Fitness>
15.0739

> <Gold.PLP.PLP>
-17.1187

> <Gold.PLP.part.hbond>
-1.9099

> <Gold.PLP.part.metal>
0.0000

> <Gold.PLP.part.buried>
0.7247

> <Gold.PLP.part.nonpolar>
-23.8232

> <Gold.PLP.part.repulsive>
9.1152

> <Gold.PLP.ligand.clash>
1.1903

> <Gold.PLP.ligand.torsion>
0.4272

> <Gold.PLP.Chemscore.Hbond>
0.0000

> <Gold.PLP.Chemscore.CHOScore>
0.0000

> <Gold.PLP.Chemscore.Metal>
0.0000

> <Gold.Chemscore.Hbonds>
donor molecule, donor type, donor heavy atom, donor atom, acceptor molecule, acceptor atom, score
      P1  H  2534  2546       L1    17  1.00

> <Gold.PLP.Chemscore.Internal.Correction>
   9.000000E+99

