#       Name:                CT1002167954
#       Creating user name   hitesit
#       Creation time:       Sun Apr 16 22:50:39 2023


#       File generated by GOLD software.
#

@<TRIPOS>MOLECULE
CT1002167954|ligand_prepared|mol2|1|dock2
    29    30     1
SMALL
NO_CHARGES


@<TRIPOS>ATOM
      1 C1          20.7528  -9.6734  -2.5188 C.3            1 RES1               0.0000
      2 C2          21.9413 -10.6244  -2.2703 C.ar           1 RES1               0.0000
      3 C3          19.9710  -9.6137  -1.2098 C.2            1 RES1               0.0000
      4 C4          21.3557  -8.3394  -2.9447 C.2            1 RES1               0.0000
      5 C5          19.7982 -10.1460  -3.6399 C.3            1 RES1               0.0000
      6 C6          22.3478 -10.9270  -0.9742 C.ar           1 RES1               0.0000
      7 C7          22.6381 -11.2079  -3.3251 C.ar           1 RES1               0.0000
      8 N8          20.0738  -8.4767  -0.4637 N.am           1 RES1               0.0000
      9 O9          19.3059 -10.5650  -0.8188 O.2            1 RES1               0.0000
     10 N10         21.1883  -7.2640  -2.1121 N.am           1 RES1               0.0000
     11 O11         21.9885  -8.2136  -3.9859 O.2            1 RES1               0.0000
     12 C12         18.5423  -9.2993  -3.7732 C.3            1 RES1               0.0000
     13 C13         23.4105 -11.7841  -0.7408 C.ar           1 RES1               0.0000
     14 C14         23.7007 -12.0646  -3.0896 C.ar           1 RES1               0.0000
     15 C15         20.6010  -7.2794  -0.8763 C.2            1 RES1               0.0000
     16 C16         24.0873 -12.3538  -1.7982 C.ar           1 RES1               0.0000
     17 O17         20.5366  -6.2826  -0.1626 O.2            1 RES1               0.0000
     18 H18         20.3387 -10.1287  -4.5944 H              1 RES1               0.0000
     19 H19         19.5047 -11.1839  -3.4396 H              1 RES1               0.0000
     20 H20         21.8288 -10.4863  -0.1295 H              1 RES1               0.0000
     21 H21         22.3523 -10.9939  -4.3494 H              1 RES1               0.0000
     22 H22         19.7266  -8.5208   0.4891 H              1 RES1               0.0000
     23 H23         21.5332  -6.3690  -2.4443 H              1 RES1               0.0000
     24 H24         17.9077  -9.6738  -4.5737 H              1 RES1               0.0000
     25 H25         17.9672  -9.3142  -2.8497 H              1 RES1               0.0000
     26 H26         18.7962  -8.2654  -3.9977 H              1 RES1               0.0000
     27 H27         23.7116 -12.0074   0.2773 H              1 RES1               0.0000
     28 H28         24.2309 -12.5102  -3.9248 H              1 RES1               0.0000
     29 H29         24.9194 -13.0255  -1.6152 H              1 RES1               0.0000
@<TRIPOS>BOND
    1    1    2 1     
    2    1    3 1     
    3    1    4 1     
    4    1    5 1     
    5    2    6 ar    
    6    2    7 ar    
    7    3    8 1     
    8    3    9 2     
    9    4   10 1     
   10    4   11 2     
   11    5   12 1     
   12    5   18 1     
   13    5   19 1     
   14    6   13 ar    
   15    6   20 1     
   16    7   14 ar    
   17    7   21 1     
   18    8   15 1     
   19    8   22 1     
   20   10   15 1     
   21   10   23 1     
   22   12   24 1     
   23   12   25 1     
   24   12   26 1     
   25   13   16 ar    
   26   13   27 1     
   27   14   16 ar    
   28   14   28 1     
   29   15   17 2     
   30   16   29 1     
@<TRIPOS>SUBSTRUCTURE
      1 RES1           1
@<TRIPOS>SET
DONOR_HYDROGENS      STATIC     ATOMS    <user>   **** ""
2 22 23
ATOM$RED        STATIC     ATOMS    COLORGROUP SYSTEM
2 22 23
@<TRIPOS>COMMENT
> <Gold.Version>
2022.3.0

> <Gold.Id.Protein>
unknown|3oxt_clean|pdb

> <Gold.Protein.RotatedTorsions>
[ 3607 3598 3597 3595 ] final   -5.47 input   60.01 | X-H torsion
[ 3527 3518 3517 3515 ] final -161.08 input   60.00 | X-H torsion
[ 3788 3779 3778 3776 ] final -129.59 input   59.99 | X-H torsion
[ 3080 3073 3071 3068 ] final  -48.47 input   60.03 | X-H torsion
[ 5059 5050 5049 5047 ] final  104.48 input   60.00 | X-H torsion
[ 2545 2534 2533 2532 ] final  176.11 input   59.97 | X-H torsion
[  570  565  563  560 ] final  -75.12 input   59.99 | X-H torsion
[ 1886 1881 1880 1877 ] final   -3.14 input   59.97 | X-H torsion
[ 3130 3121 3120 3118 ] final   29.11 input   60.01 | X-H torsion
[  590  585  584  581 ] final  148.55 input   60.02 | X-H torsion

> <Gold.Protein.ActiveResidues>
 LEU49   GLY50   THR51   GLY52   SER53   PHE54   LEU82   LYS83   GLN84   HIS87  
 GLY126  GLU127  MET128  PHE129  SER130  HIS131  LEU132  ARG133  ARG134  ILE135 
 GLY136  ARG137  ARG165  ASP166  LEU167  LYS168  PRO169  GLU170  ASN171  LEU173 
 ASP184  GLY186  PHE187  TPO197  LEU198  CYS199  GLY200  THR201  PRO202  GLU203 
 TYR204  LEU205  ILE209  ILE210  VAL226  LEU227  TYR229  GLU230  ALA233  GLY234 
 TYR235  PRO236  PRO237  PHE238  PHE239  ALA240  ASP241  GLN242  PRO243  ILE244 
 GLN245  ILE246  TYR247  LYS249  ARG256  PHE257  PRO258  SER259  ASN326  PHE327 
 ASP328  ASP329  TYR330 

> <Gold.Protein.RotatedAtoms>
   21.4984  -12.9295    6.9727 H   0  0  0  0  0  0  0  0  0  0  0  0  # atno 570  bound_to 565 
   17.0113  -11.5707   -2.6844 H   0  0  0  0  0  0  0  0  0  0  0  0  # atno 590  bound_to 585 
   26.3599   -4.5933   11.6401 H   0  0  0  0  0  0  0  0  0  0  0  0  # atno 1886 bound_to 1881
   20.0990   -4.9268    0.3906 H   0  0  0  0  0  0  0  0  0  0  0  0  # atno 2545 bound_to 2534
   19.6159   -4.0190    1.6911 H   0  0  0  0  0  0  0  0  0  0  0  0  # atno 2546 bound_to 2534
   19.4782   -3.4086    0.1560 H   0  0  0  0  0  0  0  0  0  0  0  0  # atno 2547 bound_to 2534
   17.9533   -3.0286   -0.7961 H   0  0  0  0  0  0  0  0  0  0  0  0  # atno 3080 bound_to 3073
   21.9547    3.5886    4.1172 H   0  0  0  0  0  0  0  0  0  0  0  0  # atno 3130 bound_to 3121
   16.5519   14.0866    6.9963 H   0  0  0  0  0  0  0  0  0  0  0  0  # atno 3527 bound_to 3518
   16.3014   13.7095   11.0648 H   0  0  0  0  0  0  0  0  0  0  0  0  # atno 3607 bound_to 3598
    9.3682   -1.1144   -3.5021 H   0  0  0  0  0  0  0  0  0  0  0  0  # atno 3788 bound_to 3779
   23.9022  -10.0648    8.2911 H   0  0  0  0  0  0  0  0  0  0  0  0  # atno 5059 bound_to 5050
   17.5449   13.6411   12.1120 LP  0  0  0  0  0  0  0  0  0  0  0  0  # atno 5367 bound_to 3598
   16.0182   13.3927   12.6355 LP  0  0  0  0  0  0  0  0  0  0  0  0  # atno 5368 bound_to 3598
   17.2910   13.6595    8.3823 LP  0  0  0  0  0  0  0  0  0  0  0  0  # atno 5371 bound_to 3518
   16.3090   12.6021    7.6180 LP  0  0  0  0  0  0  0  0  0  0  0  0  # atno 5372 bound_to 3518
    9.3351   -1.0180   -1.8781 LP  0  0  0  0  0  0  0  0  0  0  0  0  # atno 5429 bound_to 3779
   10.6393   -0.4857   -2.7042 LP  0  0  0  0  0  0  0  0  0  0  0  0  # atno 5430 bound_to 3779
   19.1293   -2.3689    0.1148 LP  0  0  0  0  0  0  0  0  0  0  0  0  # atno 5433 bound_to 3073
   19.0789   -2.0818   -1.4920 LP  0  0  0  0  0  0  0  0  0  0  0  0  # atno 5434 bound_to 3073
   24.7807   -9.6794    9.6049 LP  0  0  0  0  0  0  0  0  0  0  0  0  # atno 5443 bound_to 5050
   23.1494   -9.6590    9.6748 LP  0  0  0  0  0  0  0  0  0  0  0  0  # atno 5444 bound_to 5050
   20.1263  -13.6851    6.5313 LP  0  0  0  0  0  0  0  0  0  0  0  0  # atno 5447 bound_to 565 
   20.7536  -12.5088    5.5883 LP  0  0  0  0  0  0  0  0  0  0  0  0  # atno 5448 bound_to 565 
   27.1156   -5.5841   12.6866 LP  0  0  0  0  0  0  0  0  0  0  0  0  # atno 5453 bound_to 1881
   27.8792   -5.0874   11.3313 LP  0  0  0  0  0  0  0  0  0  0  0  0  # atno 5454 bound_to 1881
   21.7926    5.1841    3.8399 LP  0  0  0  0  0  0  0  0  0  0  0  0  # atno 5481 bound_to 3121
   23.0649    4.3698    3.2195 LP  0  0  0  0  0  0  0  0  0  0  0  0  # atno 5482 bound_to 3121
   18.3167  -12.2659   -2.0051 LP  0  0  0  0  0  0  0  0  0  0  0  0  # atno 5489 bound_to 585 
   17.7007  -10.8906   -1.3763 LP  0  0  0  0  0  0  0  0  0  0  0  0  # atno 5490 bound_to 585 

> <Gold.Score>
     Fitness  S(hb_ext) S(vdw_ext)  S(hb_int)    S(int)      intcor
     39.00      12.46      20.26       0.00      -1.31      -0.76

> <Gold.Goldscore.Fitness>
39.0019

> <Gold.Goldscore.Internal.Vdw>
-1.6335

> <Gold.Goldscore.Internal.Torsion>
-0.4446

> <Gold.Goldscore.External.Vdw>
20.2591

> <Gold.Goldscore.Internal.HBond>
0.0000

> <Gold.Goldscore.External.HBond>
12.4588

> <Gold.Goldscore.Internal.Correction>
-0.7650

> <Gold.Goldscore.Hbonds>
donor molecule, donor type, donor heavy atom, donor atom, acceptor molecule, acceptor atom, score
      P1  H  2534  2545       L1    17  0.97
      P1  H   580   587       L1     9  1.00
      L1  H    10    23       P1  2502  0.77

> <Gold.Goldscore.Internal.Vdw.Weighted>
-1.6335

> <Gold.Goldscore.Internal.Torsion.Weighted>
-0.4446

> <Gold.Goldscore.External.Vdw.Weighted>
27.8563

> <Gold.Goldscore.Internal.HBond.Weighted>
0.0000

> <Gold.Goldscore.External.HBond.Weighted>
12.4588

> <Gold.Goldscore.Internal.Correction.Weighted>
-0.7650

> <Gold.Rescore>
     Score     S(PLP)   S(hbond)     S(cho)   S(metal)  DE(clash)   DE(tors)     intcor
     39.91     -33.36       2.99       0.00       0.00       1.55       0.44       ----

> <Gold.PLP.Fitness>
39.9141

> <Gold.PLP.PLP>
-33.3595

> <Gold.PLP.part.hbond>
-3.8164

> <Gold.PLP.part.metal>
0.0000

> <Gold.PLP.part.buried>
-2.1705

> <Gold.PLP.part.nonpolar>
-27.9679

> <Gold.PLP.part.repulsive>
1.6110

> <Gold.PLP.ligand.clash>
1.5468

> <Gold.PLP.ligand.torsion>
0.4373

> <Gold.PLP.Chemscore.Hbond>
2.9920

> <Gold.PLP.Chemscore.CHOScore>
0.0000

> <Gold.PLP.Chemscore.Metal>
0.0000

> <Gold.Chemscore.Hbonds>
donor molecule, donor type, donor heavy atom, donor atom, acceptor molecule, acceptor atom, score
      L1  H    10    23       P1  2502  0.98
      P1  H  2534  2545       L1    17  0.83
      P1  H   580   587       L1     9  0.84

> <Gold.PLP.Chemscore.Internal.Correction>
   9.000000E+99

