#       Name:                CT1002167954
#       Creating user name   hitesit
#       Creation time:       Sun Apr 16 22:50:46 2023


#       File generated by GOLD software.
#

@<TRIPOS>MOLECULE
CT1002167954|ligand_prepared|mol2|1|dock7
    29    30     1
SMALL
NO_CHARGES


@<TRIPOS>ATOM
      1 C1          21.3984  -8.7874  -0.1192 C.3            1 RES1               0.0000
      2 C2          22.2766  -9.8784  -0.7652 C.ar           1 RES1               0.0000
      3 C3          21.9678  -7.4495  -0.5819 C.2            1 RES1               0.0000
      4 C4          19.9728  -9.0531  -0.5901 C.2            1 RES1               0.0000
      5 C5          21.4039  -8.8152   1.4270 C.3            1 RES1               0.0000
      6 C6          22.0528 -10.2831  -2.0778 C.ar           1 RES1               0.0000
      7 C7          23.3140 -10.4864  -0.0633 C.ar           1 RES1               0.0000
      8 N8          21.2629  -6.7529  -1.5188 N.am           1 RES1               0.0000
      9 O9          23.0389  -7.0308  -0.1603 O.2            1 RES1               0.0000
     10 N10         19.3799  -8.1204  -1.4003 N.am           1 RES1               0.0000
     11 O11         19.3635 -10.0695  -0.2803 O.2            1 RES1               0.0000
     12 C12         20.3371  -7.9357   2.0598 C.3            1 RES1               0.0000
     13 C13         22.8395 -11.2581  -2.6684 C.ar           1 RES1               0.0000
     14 C14         24.0994 -11.4615  -0.6557 C.ar           1 RES1               0.0000
     15 C15         19.9713  -6.9972  -1.9110 C.2            1 RES1               0.0000
     16 C16         23.8635 -11.8476  -1.9580 C.ar           1 RES1               0.0000
     17 O17         19.3901  -6.2346  -2.6776 O.2            1 RES1               0.0000
     18 H18         21.2537  -9.8489   1.7621 H              1 RES1               0.0000
     19 H19         22.3885  -8.4872   1.7826 H              1 RES1               0.0000
     20 H20         21.2500  -9.8323  -2.6517 H              1 RES1               0.0000
     21 H21         23.5172 -10.1993   0.9628 H              1 RES1               0.0000
     22 H22         21.7403  -5.9789  -1.9697 H              1 RES1               0.0000
     23 H23         18.4075  -8.2780  -1.6453 H              1 RES1               0.0000
     24 H24         20.3849  -7.9918   3.1453 H              1 RES1               0.0000
     25 H25         20.4713  -6.8961   1.7680 H              1 RES1               0.0000
     26 H26         19.3432  -8.2498   1.7476 H              1 RES1               0.0000
     27 H27         22.6489 -11.5595  -3.6931 H              1 RES1               0.0000
     28 H28         24.9038 -11.9232  -0.0927 H              1 RES1               0.0000
     29 H29         24.4798 -12.6111  -2.4210 H              1 RES1               0.0000
@<TRIPOS>BOND
    1    1    2 1     
    2    1    3 1     
    3    1    4 1     
    4    1    5 1     
    5    2    6 ar    
    6    2    7 ar    
    7    3    8 1     
    8    3    9 2     
    9    4   10 1     
   10    4   11 2     
   11    5   12 1     
   12    5   18 1     
   13    5   19 1     
   14    6   13 ar    
   15    6   20 1     
   16    7   14 ar    
   17    7   21 1     
   18    8   15 1     
   19    8   22 1     
   20   10   15 1     
   21   10   23 1     
   22   12   24 1     
   23   12   25 1     
   24   12   26 1     
   25   13   16 ar    
   26   13   27 1     
   27   14   16 ar    
   28   14   28 1     
   29   15   17 2     
   30   16   29 1     
@<TRIPOS>SUBSTRUCTURE
      1 RES1           1
@<TRIPOS>SET
DONOR_HYDROGENS      STATIC     ATOMS    <user>   **** ""
2 22 23
ATOM$RED        STATIC     ATOMS    COLORGROUP SYSTEM
2 22 23
@<TRIPOS>COMMENT
> <Gold.Version>
2022.3.0

> <Gold.Id.Protein>
unknown|3oxt_clean|pdb

> <Gold.Protein.RotatedTorsions>
[ 3607 3598 3597 3595 ] final  140.31 input   60.01 | X-H torsion
[ 3527 3518 3517 3515 ] final  -14.50 input   60.00 | X-H torsion
[ 3788 3779 3778 3776 ] final   37.66 input   59.99 | X-H torsion
[ 3080 3073 3071 3068 ] final  -46.49 input   60.03 | X-H torsion
[ 5059 5050 5049 5047 ] final  -64.19 input   60.00 | X-H torsion
[ 2545 2534 2533 2532 ] final   10.50 input   59.97 | X-H torsion
[  570  565  563  560 ] final   83.75 input   59.99 | X-H torsion
[ 1886 1881 1880 1877 ] final  -19.27 input   59.97 | X-H torsion
[ 3130 3121 3120 3118 ] final -107.32 input   60.01 | X-H torsion
[  590  585  584  581 ] final  -50.62 input   60.02 | X-H torsion

> <Gold.Protein.ActiveResidues>
 LEU49   GLY50   THR51   GLY52   SER53   PHE54   LEU82   LYS83   GLN84   HIS87  
 GLY126  GLU127  MET128  PHE129  SER130  HIS131  LEU132  ARG133  ARG134  ILE135 
 GLY136  ARG137  ARG165  ASP166  LEU167  LYS168  PRO169  GLU170  ASN171  LEU173 
 ASP184  GLY186  PHE187  TPO197  LEU198  CYS199  GLY200  THR201  PRO202  GLU203 
 TYR204  LEU205  ILE209  ILE210  VAL226  LEU227  TYR229  GLU230  ALA233  GLY234 
 TYR235  PRO236  PRO237  PHE238  PHE239  ALA240  ASP241  GLN242  PRO243  ILE244 
 GLN245  ILE246  TYR247  LYS249  ARG256  PHE257  PRO258  SER259  ASN326  PHE327 
 ASP328  ASP329  TYR330 

> <Gold.Protein.RotatedAtoms>
   20.2691  -12.9042    5.6023 H   0  0  0  0  0  0  0  0  0  0  0  0  # atno 570  bound_to 565 
   18.1836  -11.3231   -1.2788 H   0  0  0  0  0  0  0  0  0  0  0  0  # atno 590  bound_to 585 
   26.2681   -4.6918   11.8656 H   0  0  0  0  0  0  0  0  0  0  0  0  # atno 1886 bound_to 1881
   19.3543   -3.2471    0.8698 H   0  0  0  0  0  0  0  0  0  0  0  0  # atno 2545 bound_to 2534
   19.9318   -4.4317   -0.1362 H   0  0  0  0  0  0  0  0  0  0  0  0  # atno 2546 bound_to 2534
   19.9067   -4.6749    1.5035 H   0  0  0  0  0  0  0  0  0  0  0  0  # atno 2547 bound_to 2534
   17.9528   -3.0226   -0.8279 H   0  0  0  0  0  0  0  0  0  0  0  0  # atno 3080 bound_to 3073
   21.9947    5.2730    3.6869 H   0  0  0  0  0  0  0  0  0  0  0  0  # atno 3130 bound_to 3121
   16.5470   12.5848    7.9785 H   0  0  0  0  0  0  0  0  0  0  0  0  # atno 3527 bound_to 3518
   16.3930   13.3923   12.8235 H   0  0  0  0  0  0  0  0  0  0  0  0  # atno 3607 bound_to 3598
   10.3450   -0.5675   -2.0160 H   0  0  0  0  0  0  0  0  0  0  0  0  # atno 3788 bound_to 3779
   24.1685   -9.5488   10.0601 H   0  0  0  0  0  0  0  0  0  0  0  0  # atno 5059 bound_to 5050
   15.9475   13.6376   11.2778 LP  0  0  0  0  0  0  0  0  0  0  0  0  # atno 5367 bound_to 3598
   17.5234   13.7157   11.6986 LP  0  0  0  0  0  0  0  0  0  0  0  0  # atno 5368 bound_to 3598
   16.3127   13.7506    6.8670 LP  0  0  0  0  0  0  0  0  0  0  0  0  # atno 5371 bound_to 3518
   17.2922   14.0223    8.1450 LP  0  0  0  0  0  0  0  0  0  0  0  0  # atno 5372 bound_to 3518
   10.0522   -0.8144   -3.5974 LP  0  0  0  0  0  0  0  0  0  0  0  0  # atno 5429 bound_to 3779
    8.9384   -1.2401   -2.4816 LP  0  0  0  0  0  0  0  0  0  0  0  0  # atno 5430 bound_to 3779
   19.1065   -2.3880    0.1281 LP  0  0  0  0  0  0  0  0  0  0  0  0  # atno 5433 bound_to 3073
   19.1023   -2.0688   -1.4733 LP  0  0  0  0  0  0  0  0  0  0  0  0  # atno 5434 bound_to 3073
   23.0382   -9.8744    8.9364 LP  0  0  0  0  0  0  0  0  0  0  0  0  # atno 5443 bound_to 5050
   24.6235   -9.9841    8.5602 LP  0  0  0  0  0  0  0  0  0  0  0  0  # atno 5444 bound_to 5050
   21.5722  -12.5256    6.5008 LP  0  0  0  0  0  0  0  0  0  0  0  0  # atno 5447 bound_to 565 
   20.5452  -13.6937    6.9983 LP  0  0  0  0  0  0  0  0  0  0  0  0  # atno 5448 bound_to 565 
   27.3603   -5.6440   12.6060 LP  0  0  0  0  0  0  0  0  0  0  0  0  # atno 5453 bound_to 1881
   27.7270   -4.9283   11.1848 LP  0  0  0  0  0  0  0  0  0  0  0  0  # atno 5454 bound_to 1881
   23.0588    4.1086    3.2863 LP  0  0  0  0  0  0  0  0  0  0  0  0  # atno 5481 bound_to 3121
   21.7586    3.7489    4.2065 LP  0  0  0  0  0  0  0  0  0  0  0  0  # atno 5482 bound_to 3121
   16.9381  -11.0516   -2.2906 LP  0  0  0  0  0  0  0  0  0  0  0  0  # atno 5489 bound_to 585 
   17.8993  -12.3541   -2.5057 LP  0  0  0  0  0  0  0  0  0  0  0  0  # atno 5490 bound_to 585 

> <Gold.Score>
     Fitness  S(hb_ext) S(vdw_ext)  S(hb_int)    S(int)      intcor
     33.91       9.68      17.73       0.00      -0.16      -0.76

> <Gold.Goldscore.Fitness>
33.9068

> <Gold.Goldscore.Internal.Vdw>
-0.3436

> <Gold.Goldscore.Internal.Torsion>
-0.5739

> <Gold.Goldscore.External.Vdw>
17.7334

> <Gold.Goldscore.Internal.HBond>
0.0000

> <Gold.Goldscore.External.HBond>
9.6823

> <Gold.Goldscore.Internal.Correction>
-0.7585

> <Gold.Goldscore.Hbonds>
donor molecule, donor type, donor heavy atom, donor atom, acceptor molecule, acceptor atom, score
      P1  H  2534  2546       L1    17  0.03
      P1  H   580   587       L1    11  0.88
      P1  H   585   590       L1    11  0.90
      L1  H     8    22       P1  2502  0.99

> <Gold.Goldscore.Internal.Vdw.Weighted>
-0.3436

> <Gold.Goldscore.Internal.Torsion.Weighted>
-0.5739

> <Gold.Goldscore.External.Vdw.Weighted>
24.3835

> <Gold.Goldscore.Internal.HBond.Weighted>
0.0000

> <Gold.Goldscore.External.HBond.Weighted>
9.6823

> <Gold.Goldscore.Internal.Correction.Weighted>
-0.7585

> <Gold.Rescore>
     Score     S(PLP)   S(hbond)     S(cho)   S(metal)  DE(clash)   DE(tors)     intcor
     28.68     -22.57       2.63       0.00       0.00       0.00       0.90       ----

> <Gold.PLP.Fitness>
28.6771

> <Gold.PLP.PLP>
-22.5727

> <Gold.PLP.part.hbond>
-2.7558

> <Gold.PLP.part.metal>
0.0000

> <Gold.PLP.part.buried>
-5.5423

> <Gold.PLP.part.nonpolar>
-17.6286

> <Gold.PLP.part.repulsive>
1.5360

> <Gold.PLP.ligand.clash>
0.0000

> <Gold.PLP.ligand.torsion>
0.8984

> <Gold.PLP.Chemscore.Hbond>
2.6338

> <Gold.PLP.Chemscore.CHOScore>
0.0000

> <Gold.PLP.Chemscore.Metal>
0.0000

> <Gold.Chemscore.Hbonds>
donor molecule, donor type, donor heavy atom, donor atom, acceptor molecule, acceptor atom, score
      L1  H     8    22       P1  2502  1.00
      P1  H   580   587       L1    11  1.00
      P1  H   585   590       L1    11  1.00

> <Gold.PLP.Chemscore.Internal.Correction>
   9.000000E+99

