#       Name:                CT1002167954
#       Creating user name   hitesit
#       Creation time:       Sun Apr 16 22:50:42 2023


#       File generated by GOLD software.
#

@<TRIPOS>MOLECULE
CT1002167954|ligand_prepared|mol2|1|dock4
    29    30     1
SMALL
NO_CHARGES


@<TRIPOS>ATOM
      1 C1          21.0512  -8.6517  -0.0085 C.3            1 RES1               0.0000
      2 C2          22.2071  -9.6700   0.0663 C.ar           1 RES1               0.0000
      3 C3          21.6573  -7.3533  -0.5329 C.2            1 RES1               0.0000
      4 C4          20.0016  -9.2646  -0.9290 C.2            1 RES1               0.0000
      5 C5          20.3815  -8.3653   1.3557 C.3            1 RES1               0.0000
      6 C6          22.8107  -9.9686   1.2842 C.ar           1 RES1               0.0000
      7 C7          22.6781 -10.3197  -1.0715 C.ar           1 RES1               0.0000
      8 N8          21.3808  -7.0021  -1.8214 N.am           1 RES1               0.0000
      9 O9          22.3988  -6.6683   0.1608 O.2            1 RES1               0.0000
     10 N10         19.7511  -8.6401  -2.1227 N.am           1 RES1               0.0000
     11 O11         19.4011 -10.2920  -0.6387 O.2            1 RES1               0.0000
     12 C12         19.0831  -7.5812   1.2488 C.3            1 RES1               0.0000
     13 C13         23.8457 -10.8857   1.3624 C.ar           1 RES1               0.0000
     14 C14         23.7135 -11.2363  -0.9911 C.ar           1 RES1               0.0000
     15 C15         20.4151  -7.5539  -2.6242 C.2            1 RES1               0.0000
     16 C16         24.2974 -11.5204   0.2250 C.ar           1 RES1               0.0000
     17 O17         20.1695  -7.0820  -3.7306 O.2            1 RES1               0.0000
     18 H18         20.1774  -9.3199   1.8562 H              1 RES1               0.0000
     19 H19         21.0837  -7.8016   1.9824 H              1 RES1               0.0000
     20 H20         22.4702  -9.4773   2.1896 H              1 RES1               0.0000
     21 H21         22.2345 -10.1111  -2.0391 H              1 RES1               0.0000
     22 H22         21.9442  -6.2606  -2.2253 H              1 RES1               0.0000
     23 H23         19.0000  -9.0201  -2.6900 H              1 RES1               0.0000
     24 H24         18.6551  -7.4076   2.2338 H              1 RES1               0.0000
     25 H25         19.2535  -6.6151   0.7782 H              1 RES1               0.0000
     26 H26         18.3525  -8.1244   0.6528 H              1 RES1               0.0000
     27 H27         24.3028 -11.1047   2.3217 H              1 RES1               0.0000
     28 H28         24.0662 -11.7330  -1.8890 H              1 RES1               0.0000
     29 H29         25.1080 -12.2391   0.2865 H              1 RES1               0.0000
@<TRIPOS>BOND
    1    1    2 1     
    2    1    3 1     
    3    1    4 1     
    4    1    5 1     
    5    2    6 ar    
    6    2    7 ar    
    7    3    8 1     
    8    3    9 2     
    9    4   10 1     
   10    4   11 2     
   11    5   12 1     
   12    5   18 1     
   13    5   19 1     
   14    6   13 ar    
   15    6   20 1     
   16    7   14 ar    
   17    7   21 1     
   18    8   15 1     
   19    8   22 1     
   20   10   15 1     
   21   10   23 1     
   22   12   24 1     
   23   12   25 1     
   24   12   26 1     
   25   13   16 ar    
   26   13   27 1     
   27   14   16 ar    
   28   14   28 1     
   29   15   17 2     
   30   16   29 1     
@<TRIPOS>SUBSTRUCTURE
      1 RES1           1
@<TRIPOS>SET
DONOR_HYDROGENS      STATIC     ATOMS    <user>   **** ""
2 22 23
ATOM$RED        STATIC     ATOMS    COLORGROUP SYSTEM
2 22 23
@<TRIPOS>COMMENT
> <Gold.Version>
2022.3.0

> <Gold.Id.Protein>
unknown|3oxt_clean|pdb

> <Gold.Protein.RotatedTorsions>
[ 3607 3598 3597 3595 ] final   68.70 input   60.01 | X-H torsion
[ 3527 3518 3517 3515 ] final  -30.86 input   60.00 | X-H torsion
[ 3788 3779 3778 3776 ] final  -99.31 input   59.99 | X-H torsion
[ 3080 3073 3071 3068 ] final -106.16 input   60.03 | X-H torsion
[ 5059 5050 5049 5047 ] final  -94.15 input   60.00 | X-H torsion
[ 2545 2534 2533 2532 ] final -102.84 input   59.97 | X-H torsion
[  570  565  563  560 ] final    4.50 input   59.99 | X-H torsion
[ 1886 1881 1880 1877 ] final -165.46 input   59.97 | X-H torsion
[ 3130 3121 3120 3118 ] final -158.65 input   60.01 | X-H torsion
[  590  585  584  581 ] final  -59.79 input   60.02 | X-H torsion

> <Gold.Protein.ActiveResidues>
 LEU49   GLY50   THR51   GLY52   SER53   PHE54   LEU82   LYS83   GLN84   HIS87  
 GLY126  GLU127  MET128  PHE129  SER130  HIS131  LEU132  ARG133  ARG134  ILE135 
 GLY136  ARG137  ARG165  ASP166  LEU167  LYS168  PRO169  GLU170  ASN171  LEU173 
 ASP184  GLY186  PHE187  TPO197  LEU198  CYS199  GLY200  THR201  PRO202  GLU203 
 TYR204  LEU205  ILE209  ILE210  VAL226  LEU227  TYR229  GLU230  ALA233  GLY234 
 TYR235  PRO236  PRO237  PHE238  PHE239  ALA240  ASP241  GLN242  PRO243  ILE244 
 GLN245  ILE246  TYR247  LYS249  ARG256  PHE257  PRO258  SER259  ASN326  PHE327 
 ASP328  ASP329  TYR330 

> <Gold.Protein.RotatedAtoms>
   21.2758  -12.3583    5.9422 H   0  0  0  0  0  0  0  0  0  0  0  0  # atno 570  bound_to 565 
   18.0893  -11.2074   -1.2686 H   0  0  0  0  0  0  0  0  0  0  0  0  # atno 590  bound_to 585 
   27.7057   -5.6413   12.3568 H   0  0  0  0  0  0  0  0  0  0  0  0  # atno 1886 bound_to 1881
   19.8669   -4.5925    1.5657 H   0  0  0  0  0  0  0  0  0  0  0  0  # atno 2545 bound_to 2534
   19.3586   -3.2361    0.7590 H   0  0  0  0  0  0  0  0  0  0  0  0  # atno 2546 bound_to 2534
   19.9674   -4.5253   -0.0868 H   0  0  0  0  0  0  0  0  0  0  0  0  # atno 2547 bound_to 2534
   18.3335   -2.9184    0.0158 H   0  0  0  0  0  0  0  0  0  0  0  0  # atno 3080 bound_to 3073
   22.6798    5.0985    3.2894 H   0  0  0  0  0  0  0  0  0  0  0  0  # atno 3130 bound_to 3121
   16.3956   12.5759    7.7591 H   0  0  0  0  0  0  0  0  0  0  0  0  # atno 3527 bound_to 3518
   15.6917   13.4781   11.9863 H   0  0  0  0  0  0  0  0  0  0  0  0  # atno 3607 bound_to 3598
    9.8012   -0.9274   -3.6310 H   0  0  0  0  0  0  0  0  0  0  0  0  # atno 3788 bound_to 3779
   23.6851   -9.5513   10.0513 H   0  0  0  0  0  0  0  0  0  0  0  0  # atno 5059 bound_to 5050
   17.0287   13.7762   11.1080 LP  0  0  0  0  0  0  0  0  0  0  0  0  # atno 5367 bound_to 3598
   17.1484   13.4906   12.7114 LP  0  0  0  0  0  0  0  0  0  0  0  0  # atno 5368 bound_to 3598
   16.4508   13.9731    6.9258 LP  0  0  0  0  0  0  0  0  0  0  0  0  # atno 5371 bound_to 3518
   17.3065   13.8087    8.3069 LP  0  0  0  0  0  0  0  0  0  0  0  0  # atno 5372 bound_to 3518
    9.0253   -1.1827   -2.2238 LP  0  0  0  0  0  0  0  0  0  0  0  0  # atno 5429 bound_to 3779
   10.5130   -0.5094   -2.2288 LP  0  0  0  0  0  0  0  0  0  0  0  0  # atno 5430 bound_to 3779
   19.4896   -1.9628   -0.6151 LP  0  0  0  0  0  0  0  0  0  0  0  0  # atno 5433 bound_to 3073
   18.3357   -2.5989   -1.5798 LP  0  0  0  0  0  0  0  0  0  0  0  0  # atno 5434 bound_to 3073
   23.2899   -9.9912    8.5358 LP  0  0  0  0  0  0  0  0  0  0  0  0  # atno 5443 bound_to 5050
   24.8591   -9.8647    8.9697 LP  0  0  0  0  0  0  0  0  0  0  0  0  # atno 5444 bound_to 5050
   21.0985  -13.3938    7.1851 LP  0  0  0  0  0  0  0  0  0  0  0  0  # atno 5447 bound_to 565 
   20.0055  -13.3751    5.9720 LP  0  0  0  0  0  0  0  0  0  0  0  0  # atno 5448 bound_to 565 
   27.3841   -4.7018   11.0676 LP  0  0  0  0  0  0  0  0  0  0  0  0  # atno 5453 bound_to 1881
   26.2555   -4.9143   12.2285 LP  0  0  0  0  0  0  0  0  0  0  0  0  # atno 5454 bound_to 1881
   22.6569    3.5201    3.6854 LP  0  0  0  0  0  0  0  0  0  0  0  0  # atno 5481 bound_to 3121
   21.4704    4.5131    4.2077 LP  0  0  0  0  0  0  0  0  0  0  0  0  # atno 5482 bound_to 3121
   16.9209  -11.1534   -2.4004 LP  0  0  0  0  0  0  0  0  0  0  0  0  # atno 5489 bound_to 585 
   18.0114  -12.3689   -2.4061 LP  0  0  0  0  0  0  0  0  0  0  0  0  # atno 5490 bound_to 585 

> <Gold.Score>
     Fitness  S(hb_ext) S(vdw_ext)  S(hb_int)    S(int)      intcor
     33.31      10.05      17.34       0.00      -0.57      -0.76

> <Gold.Goldscore.Fitness>
33.3138

> <Gold.Goldscore.Internal.Vdw>
-0.7744

> <Gold.Goldscore.Internal.Torsion>
-0.5610

> <Gold.Goldscore.External.Vdw>
17.3374

> <Gold.Goldscore.Internal.HBond>
0.0000

> <Gold.Goldscore.External.HBond>
10.0454

> <Gold.Goldscore.Internal.Correction>
-0.7650

> <Gold.Goldscore.Hbonds>
donor molecule, donor type, donor heavy atom, donor atom, acceptor molecule, acceptor atom, score
      P1  H  2583  2589       L1     9  0.02
      P1  H   580   587       L1    11  1.00
      P1  H   585   590       L1    11  1.00
      L1  H     8    22       P1  2502  1.00

> <Gold.Goldscore.Internal.Vdw.Weighted>
-0.7744

> <Gold.Goldscore.Internal.Torsion.Weighted>
-0.5610

> <Gold.Goldscore.External.Vdw.Weighted>
23.8389

> <Gold.Goldscore.Internal.HBond.Weighted>
0.0000

> <Gold.Goldscore.External.HBond.Weighted>
10.0454

> <Gold.Goldscore.Internal.Correction.Weighted>
-0.7650

> <Gold.Rescore>
     Score     S(PLP)   S(hbond)     S(cho)   S(metal)  DE(clash)   DE(tors)     intcor
     30.72     -24.87       2.59       0.00       0.00       0.05       0.93       ----

> <Gold.PLP.Fitness>
30.7195

> <Gold.PLP.PLP>
-24.8737

> <Gold.PLP.part.hbond>
-2.7536

> <Gold.PLP.part.metal>
0.0000

> <Gold.PLP.part.buried>
-5.9677

> <Gold.PLP.part.nonpolar>
-18.4038

> <Gold.PLP.part.repulsive>
0.8634

> <Gold.PLP.ligand.clash>
0.0475

> <Gold.PLP.ligand.torsion>
0.9335

> <Gold.PLP.Chemscore.Hbond>
2.5868

> <Gold.PLP.Chemscore.CHOScore>
0.0000

> <Gold.PLP.Chemscore.Metal>
0.0000

> <Gold.Chemscore.Hbonds>
donor molecule, donor type, donor heavy atom, donor atom, acceptor molecule, acceptor atom, score
      L1  H     8    22       P1  2502  1.00
      P1  H   580   587       L1    11  1.00
      P1  H   585   590       L1    11  1.00

> <Gold.PLP.Chemscore.Internal.Correction>
   9.000000E+99

