#       Name:                CT1002167954
#       Creating user name   hitesit
#       Creation time:       Sun Apr 16 22:50:47 2023


#       File generated by GOLD software.
#

@<TRIPOS>MOLECULE
CT1002167954|ligand_prepared|mol2|1|dock8
    29    30     1
SMALL
NO_CHARGES


@<TRIPOS>ATOM
      1 C1          25.6090  -9.2653   2.6534 C.3            1 RES1               0.0000
      2 C2          25.1653 -10.4347   1.7509 C.ar           1 RES1               0.0000
      3 C3          24.3859  -8.3695   2.8262 C.2            1 RES1               0.0000
      4 C4          26.1087  -9.8929   3.9500 C.2            1 RES1               0.0000
      5 C5          26.7581  -8.4182   2.0587 C.3            1 RES1               0.0000
      6 C6          24.9457 -10.2365   0.3911 C.ar           1 RES1               0.0000
      7 C7          24.9745 -11.7155   2.2623 C.ar           1 RES1               0.0000
      8 N8          23.7484  -8.3963   4.0316 N.am           1 RES1               0.0000
      9 O9          23.9637  -7.6800   1.9061 O.2            1 RES1               0.0000
     10 N10         25.4031  -9.6432   5.0978 N.am           1 RES1               0.0000
     11 O11         27.0975 -10.6148   3.9851 O.2            1 RES1               0.0000
     12 C12         27.2876  -7.3526   3.0054 C.3            1 RES1               0.0000
     13 C13         24.5525 -11.2815  -0.4285 C.ar           1 RES1               0.0000
     14 C14         24.5810 -12.7591   1.4410 C.ar           1 RES1               0.0000
     15 C15         24.2281  -8.9484   5.1920 C.2            1 RES1               0.0000
     16 C16         24.3703 -12.5434   0.0957 C.ar           1 RES1               0.0000
     17 O17         23.6236  -8.8126   6.2519 O.2            1 RES1               0.0000
     18 H18         27.5829  -9.0865   1.7824 H              1 RES1               0.0000
     19 H19         26.4003  -7.9309   1.1433 H              1 RES1               0.0000
     20 H20         25.0817  -9.2497  -0.0389 H              1 RES1               0.0000
     21 H21         25.1334 -11.9083   3.3179 H              1 RES1               0.0000
     22 H22         22.8300  -7.9660   4.0740 H              1 RES1               0.0000
     23 H23         25.7896 -10.0091   5.9621 H              1 RES1               0.0000
     24 H24         28.0918  -6.7875   2.5390 H              1 RES1               0.0000
     25 H25         26.4992  -6.6554   3.2812 H              1 RES1               0.0000
     26 H26         27.6748  -7.8041   3.9165 H              1 RES1               0.0000
     27 H27         24.3866 -11.1062  -1.4863 H              1 RES1               0.0000
     28 H28         24.4382 -13.7506   1.8580 H              1 RES1               0.0000
     29 H29         24.0626 -13.3620  -0.5465 H              1 RES1               0.0000
@<TRIPOS>BOND
    1    1    2 1     
    2    1    3 1     
    3    1    4 1     
    4    1    5 1     
    5    2    6 ar    
    6    2    7 ar    
    7    3    8 1     
    8    3    9 2     
    9    4   10 1     
   10    4   11 2     
   11    5   12 1     
   12    5   18 1     
   13    5   19 1     
   14    6   13 ar    
   15    6   20 1     
   16    7   14 ar    
   17    7   21 1     
   18    8   15 1     
   19    8   22 1     
   20   10   15 1     
   21   10   23 1     
   22   12   24 1     
   23   12   25 1     
   24   12   26 1     
   25   13   16 ar    
   26   13   27 1     
   27   14   16 ar    
   28   14   28 1     
   29   15   17 2     
   30   16   29 1     
@<TRIPOS>SUBSTRUCTURE
      1 RES1           1
@<TRIPOS>SET
DONOR_HYDROGENS      STATIC     ATOMS    <user>   **** ""
2 22 23
ATOM$RED        STATIC     ATOMS    COLORGROUP SYSTEM
2 22 23
@<TRIPOS>COMMENT
> <Gold.Version>
2022.3.0

> <Gold.Id.Protein>
unknown|3oxt_clean|pdb

> <Gold.Protein.RotatedTorsions>
[ 3607 3598 3597 3595 ] final -114.32 input   60.01 | X-H torsion
[ 3527 3518 3517 3515 ] final -166.78 input   60.00 | X-H torsion
[ 3788 3779 3778 3776 ] final  131.86 input   59.99 | X-H torsion
[ 3080 3073 3071 3068 ] final    4.08 input   60.03 | X-H torsion
[ 5059 5050 5049 5047 ] final -113.72 input   60.00 | X-H torsion
[ 2545 2534 2533 2532 ] final  162.34 input   59.97 | X-H torsion
[  570  565  563  560 ] final  123.34 input   59.99 | X-H torsion
[ 1886 1881 1880 1877 ] final -170.60 input   59.97 | X-H torsion
[ 3130 3121 3120 3118 ] final   45.43 input   60.01 | X-H torsion
[  590  585  584  581 ] final   76.01 input   60.02 | X-H torsion

> <Gold.Protein.ActiveResidues>
 LEU49   GLY50   THR51   GLY52   SER53   PHE54   LEU82   LYS83   GLN84   HIS87  
 GLY126  GLU127  MET128  PHE129  SER130  HIS131  LEU132  ARG133  ARG134  ILE135 
 GLY136  ARG137  ARG165  ASP166  LEU167  LYS168  PRO169  GLU170  ASN171  LEU173 
 ASP184  GLY186  PHE187  TPO197  LEU198  CYS199  GLY200  THR201  PRO202  GLU203 
 TYR204  LEU205  ILE209  ILE210  VAL226  LEU227  TYR229  GLU230  ALA233  GLY234 
 TYR235  PRO236  PRO237  PHE238  PHE239  ALA240  ASP241  GLN242  PRO243  ILE244 
 GLN245  ILE246  TYR247  LYS249  ARG256  PHE257  PRO258  SER259  ASN326  PHE327 
 ASP328  ASP329  TYR330 

> <Gold.Protein.RotatedAtoms>
   20.0146  -13.3627    5.9589 H   0  0  0  0  0  0  0  0  0  0  0  0  # atno 570  bound_to 565 
   17.8121  -12.3273   -2.5651 H   0  0  0  0  0  0  0  0  0  0  0  0  # atno 590  bound_to 585 
   27.7612   -5.6281   12.2953 H   0  0  0  0  0  0  0  0  0  0  0  0  # atno 1886 bound_to 1881
   20.0695   -4.8196    0.1900 H   0  0  0  0  0  0  0  0  0  0  0  0  # atno 2545 bound_to 2534
   19.7046   -4.2306    1.6962 H   0  0  0  0  0  0  0  0  0  0  0  0  # atno 2546 bound_to 2534
   19.4190   -3.3042    0.3514 H   0  0  0  0  0  0  0  0  0  0  0  0  # atno 2547 bound_to 2534
   18.2301   -2.6880   -1.4993 H   0  0  0  0  0  0  0  0  0  0  0  0  # atno 3080 bound_to 3073
   22.1723    3.4893    4.0015 H   0  0  0  0  0  0  0  0  0  0  0  0  # atno 3130 bound_to 3121
   16.6086   14.1437    7.0431 H   0  0  0  0  0  0  0  0  0  0  0  0  # atno 3527 bound_to 3518
   17.5524   13.6726   11.9322 H   0  0  0  0  0  0  0  0  0  0  0  0  # atno 3607 bound_to 3598
    9.1009   -1.1373   -2.1088 H   0  0  0  0  0  0  0  0  0  0  0  0  # atno 3788 bound_to 3779
   23.3988   -9.5902    9.9181 H   0  0  0  0  0  0  0  0  0  0  0  0  # atno 5059 bound_to 5050
   16.1688   13.3882   12.7399 LP  0  0  0  0  0  0  0  0  0  0  0  0  # atno 5367 bound_to 3598
   16.1345   13.6828   11.1341 LP  0  0  0  0  0  0  0  0  0  0  0  0  # atno 5368 bound_to 3598
   17.2745   13.5731    8.4145 LP  0  0  0  0  0  0  0  0  0  0  0  0  # atno 5371 bound_to 3518
   16.2685   12.6310    7.5387 LP  0  0  0  0  0  0  0  0  0  0  0  0  # atno 5372 bound_to 3518
   10.5732   -0.4913   -2.3596 LP  0  0  0  0  0  0  0  0  0  0  0  0  # atno 5429 bound_to 3779
    9.6703   -0.9893   -3.6259 LP  0  0  0  0  0  0  0  0  0  0  0  0  # atno 5430 bound_to 3779
   18.4506   -2.8551    0.1042 LP  0  0  0  0  0  0  0  0  0  0  0  0  # atno 5433 bound_to 3073
   19.4788   -1.9387   -0.7732 LP  0  0  0  0  0  0  0  0  0  0  0  0  # atno 5434 bound_to 3073
   23.5552  -10.0416    8.3631 LP  0  0  0  0  0  0  0  0  0  0  0  0  # atno 5443 bound_to 5050
   24.8823   -9.7751    9.2766 LP  0  0  0  0  0  0  0  0  0  0  0  0  # atno 5444 bound_to 5050
   21.2902  -12.3521    5.9549 LP  0  0  0  0  0  0  0  0  0  0  0  0  # atno 5447 bound_to 565 
   21.0835  -13.4057    7.1853 LP  0  0  0  0  0  0  0  0  0  0  0  0  # atno 5448 bound_to 565 
   27.3079   -4.6655   11.0642 LP  0  0  0  0  0  0  0  0  0  0  0  0  # atno 5453 bound_to 1881
   26.2757   -4.9639   12.2939 LP  0  0  0  0  0  0  0  0  0  0  0  0  # atno 5454 bound_to 1881
   21.6316    5.0241    3.9816 LP  0  0  0  0  0  0  0  0  0  0  0  0  # atno 5481 bound_to 3121
   23.0068    4.6297    3.1943 LP  0  0  0  0  0  0  0  0  0  0  0  0  # atno 5482 bound_to 3121
   18.2491  -11.4086   -1.2946 LP  0  0  0  0  0  0  0  0  0  0  0  0  # atno 5489 bound_to 585 
   16.9622  -10.9862   -2.2069 LP  0  0  0  0  0  0  0  0  0  0  0  0  # atno 5490 bound_to 585 

> <Gold.Score>
     Fitness  S(hb_ext) S(vdw_ext)  S(hb_int)    S(int)      intcor
     31.11       0.00      23.69       0.00      -1.46      -0.76

> <Gold.Goldscore.Fitness>
31.1146

> <Gold.Goldscore.Internal.Vdw>
-1.7996

> <Gold.Goldscore.Internal.Torsion>
-0.4166

> <Gold.Goldscore.External.Vdw>
23.6889

> <Gold.Goldscore.Internal.HBond>
0.0000

> <Gold.Goldscore.External.HBond>
0.0000

> <Gold.Goldscore.Internal.Correction>
-0.7585

> <Gold.Goldscore.Internal.Vdw.Weighted>
-1.7996

> <Gold.Goldscore.Internal.Torsion.Weighted>
-0.4166

> <Gold.Goldscore.External.Vdw.Weighted>
32.5722

> <Gold.Goldscore.Internal.HBond.Weighted>
0.0000

> <Gold.Goldscore.External.HBond.Weighted>
0.0000

> <Gold.Goldscore.Internal.Correction.Weighted>
-0.7585

> <Gold.Rescore>
     Score     S(PLP)   S(hbond)     S(cho)   S(metal)  DE(clash)   DE(tors)     intcor
     31.78     -33.36       0.00       0.00       0.00       1.44       0.07       ----

> <Gold.PLP.Fitness>
31.7791

> <Gold.PLP.PLP>
-33.3614

> <Gold.PLP.part.hbond>
-0.4464

> <Gold.PLP.part.metal>
0.0000

> <Gold.PLP.part.buried>
-6.0689

> <Gold.PLP.part.nonpolar>
-28.4671

> <Gold.PLP.part.repulsive>
1.8709

> <Gold.PLP.ligand.clash>
1.4396

> <Gold.PLP.ligand.torsion>
0.0714

> <Gold.PLP.Chemscore.Hbond>
0.0000

> <Gold.PLP.Chemscore.CHOScore>
0.0000

> <Gold.PLP.Chemscore.Metal>
0.0000

> <Gold.PLP.Chemscore.Internal.Correction>
   9.000000E+99

