#       Name:                CT1002167954
#       Creating user name   hitesit
#       Creation time:       Sun Apr 16 22:50:49 2023


#       File generated by GOLD software.
#

@<TRIPOS>MOLECULE
CT1002167954|ligand_prepared|mol2|1|dock9
    29    30     1
SMALL
NO_CHARGES


@<TRIPOS>ATOM
      1 C1          25.2661  -9.3942   1.8800 C.3            1 RES1               0.0000
      2 C2          24.9180 -10.6597   1.0700 C.ar           1 RES1               0.0000
      3 C3          23.9362  -8.7735   2.2977 C.2            1 RES1               0.0000
      4 C4          26.1297  -9.8589   3.0474 C.2            1 RES1               0.0000
      5 C5          26.0696  -8.3421   1.0806 C.3            1 RES1               0.0000
      6 C6          24.7536 -10.5946  -0.3104 C.ar           1 RES1               0.0000
      7 C7          24.7610 -11.8976   1.6878 C.ar           1 RES1               0.0000
      8 N8          23.5645  -8.8960   3.6041 N.am           1 RES1               0.0000
      9 O9          23.2063  -8.2196   1.4849 O.2            1 RES1               0.0000
     10 N10         25.6223  -9.7278   4.3135 N.am           1 RES1               0.0000
     11 O11         27.2381 -10.3529   2.8812 O.2            1 RES1               0.0000
     12 C12         26.6874  -7.2551   1.9460 C.3            1 RES1               0.0000
     13 C13         24.4464 -11.7266  -1.0470 C.ar           1 RES1               0.0000
     14 C14         24.4534 -13.0283   0.9492 C.ar           1 RES1               0.0000
     15 C15         24.3664  -9.2958   4.6427 C.2            1 RES1               0.0000
     16 C16         24.2965 -12.9441  -0.4179 C.ar           1 RES1               0.0000
     17 O17         23.9633  -9.2572   5.8017 O.2            1 RES1               0.0000
     18 H18         26.8695  -8.8523   0.5299 H              1 RES1               0.0000
     19 H19         25.4036  -7.8726   0.3460 H              1 RES1               0.0000
     20 H20         24.8653  -9.6447  -0.8225 H              1 RES1               0.0000
     21 H21         24.8787 -11.9874   2.7623 H              1 RES1               0.0000
     22 H22         22.6011  -8.6694   3.8296 H              1 RES1               0.0000
     23 H23         26.2378  -9.9751   5.0818 H              1 RES1               0.0000
     24 H24         27.2396  -6.5435   1.3357 H              1 RES1               0.0000
     25 H25         25.9179  -6.7104   2.4890 H              1 RES1               0.0000
     26 H26         27.3750  -7.6843   2.6718 H              1 RES1               0.0000
     27 H27         24.3226 -11.6547  -2.1225 H              1 RES1               0.0000
     28 H28         24.3358 -13.9843   1.4486 H              1 RES1               0.0000
     29 H29         24.0562 -13.8307  -0.9952 H              1 RES1               0.0000
@<TRIPOS>BOND
    1    1    2 1     
    2    1    3 1     
    3    1    4 1     
    4    1    5 1     
    5    2    6 ar    
    6    2    7 ar    
    7    3    8 1     
    8    3    9 2     
    9    4   10 1     
   10    4   11 2     
   11    5   12 1     
   12    5   18 1     
   13    5   19 1     
   14    6   13 ar    
   15    6   20 1     
   16    7   14 ar    
   17    7   21 1     
   18    8   15 1     
   19    8   22 1     
   20   10   15 1     
   21   10   23 1     
   22   12   24 1     
   23   12   25 1     
   24   12   26 1     
   25   13   16 ar    
   26   13   27 1     
   27   14   16 ar    
   28   14   28 1     
   29   15   17 2     
   30   16   29 1     
@<TRIPOS>SUBSTRUCTURE
      1 RES1           1
@<TRIPOS>SET
DONOR_HYDROGENS      STATIC     ATOMS    <user>   **** ""
2 22 23
ATOM$RED        STATIC     ATOMS    COLORGROUP SYSTEM
2 22 23
@<TRIPOS>COMMENT
> <Gold.Version>
2022.3.0

> <Gold.Id.Protein>
unknown|3oxt_clean|pdb

> <Gold.Protein.RotatedTorsions>
[ 3607 3598 3597 3595 ] final   91.56 input   60.01 | X-H torsion
[ 3527 3518 3517 3515 ] final   70.94 input   60.00 | X-H torsion
[ 3788 3779 3778 3776 ] final -136.97 input   59.99 | X-H torsion
[ 3080 3073 3071 3068 ] final   -9.18 input   60.03 | X-H torsion
[ 5059 5050 5049 5047 ] final  104.28 input   60.00 | X-H torsion
[ 2545 2534 2533 2532 ] final -160.78 input   59.97 | X-H torsion
[  570  565  563  560 ] final   19.36 input   59.99 | X-H torsion
[ 1886 1881 1880 1877 ] final   79.23 input   59.97 | X-H torsion
[ 3130 3121 3120 3118 ] final -113.97 input   60.01 | X-H torsion
[  590  585  584  581 ] final   76.33 input   60.02 | X-H torsion

> <Gold.Protein.ActiveResidues>
 LEU49   GLY50   THR51   GLY52   SER53   PHE54   LEU82   LYS83   GLN84   HIS87  
 GLY126  GLU127  MET128  PHE129  SER130  HIS131  LEU132  ARG133  ARG134  ILE135 
 GLY136  ARG137  ARG165  ASP166  LEU167  LYS168  PRO169  GLU170  ASN171  LEU173 
 ASP184  GLY186  PHE187  TPO197  LEU198  CYS199  GLY200  THR201  PRO202  GLU203 
 TYR204  LEU205  ILE209  ILE210  VAL226  LEU227  TYR229  GLU230  ALA233  GLY234 
 TYR235  PRO236  PRO237  PHE238  PHE239  ALA240  ASP241  GLN242  PRO243  ILE244 
 GLN245  ILE246  TYR247  LYS249  ARG256  PHE257  PRO258  SER259  ASN326  PHE327 
 ASP328  ASP329  TYR330 

> <Gold.Protein.RotatedAtoms>
   21.0990  -12.3785    5.7779 H   0  0  0  0  0  0  0  0  0  0  0  0  # atno 570  bound_to 565 
   17.8079  -12.3259   -2.5680 H   0  0  0  0  0  0  0  0  0  0  0  0  # atno 590  bound_to 585 
   27.4505   -4.7381   11.0835 H   0  0  0  0  0  0  0  0  0  0  0  0  # atno 1886 bound_to 1881
   20.1008   -5.0004    0.7667 H   0  0  0  0  0  0  0  0  0  0  0  0  # atno 2545 bound_to 2534
   19.4843   -3.6827    1.5621 H   0  0  0  0  0  0  0  0  0  0  0  0  # atno 2546 bound_to 2534
   19.6080   -3.6711   -0.0910 H   0  0  0  0  0  0  0  0  0  0  0  0  # atno 2547 bound_to 2534
   18.1078   -2.8033   -1.3631 H   0  0  0  0  0  0  0  0  0  0  0  0  # atno 3080 bound_to 3073
   22.0828    5.2909    3.6261 H   0  0  0  0  0  0  0  0  0  0  0  0  # atno 3130 bound_to 3121
   17.2648   13.5367    8.4192 H   0  0  0  0  0  0  0  0  0  0  0  0  # atno 3527 bound_to 3518
   15.7913   13.4225   12.3394 H   0  0  0  0  0  0  0  0  0  0  0  0  # atno 3607 bound_to 3598
    9.2756   -1.1516   -3.4346 H   0  0  0  0  0  0  0  0  0  0  0  0  # atno 3788 bound_to 3779
   23.9055  -10.0648    8.2909 H   0  0  0  0  0  0  0  0  0  0  0  0  # atno 5059 bound_to 5050
   16.6684   13.7586   11.0106 LP  0  0  0  0  0  0  0  0  0  0  0  0  # atno 5367 bound_to 3598
   17.4084   13.5642   12.4533 LP  0  0  0  0  0  0  0  0  0  0  0  0  # atno 5368 bound_to 3598
   16.2535   12.6448    7.5073 LP  0  0  0  0  0  0  0  0  0  0  0  0  # atno 5371 bound_to 3518
   16.6291   14.1701    7.0612 LP  0  0  0  0  0  0  0  0  0  0  0  0  # atno 5372 bound_to 3518
    9.4332   -0.9699   -1.8253 LP  0  0  0  0  0  0  0  0  0  0  0  0  # atno 5429 bound_to 3779
   10.6345   -0.4963   -2.8250 LP  0  0  0  0  0  0  0  0  0  0  0  0  # atno 5430 bound_to 3779
   18.6235   -2.7457    0.1791 LP  0  0  0  0  0  0  0  0  0  0  0  0  # atno 5433 bound_to 3073
   19.4290   -1.9319   -0.9852 LP  0  0  0  0  0  0  0  0  0  0  0  0  # atno 5434 bound_to 3073
   24.7792   -9.6786    9.6077 LP  0  0  0  0  0  0  0  0  0  0  0  0  # atno 5443 bound_to 5050
   23.1476   -9.6598    9.6722 LP  0  0  0  0  0  0  0  0  0  0  0  0  # atno 5444 bound_to 5050
   21.2766  -13.2304    7.1530 LP  0  0  0  0  0  0  0  0  0  0  0  0  # atno 5447 bound_to 565 
   20.0053  -13.5182    6.1694 LP  0  0  0  0  0  0  0  0  0  0  0  0  # atno 5448 bound_to 565 
   26.2430   -4.8702   12.1663 LP  0  0  0  0  0  0  0  0  0  0  0  0  # atno 5453 bound_to 1881
   27.6535   -5.6555   12.4121 LP  0  0  0  0  0  0  0  0  0  0  0  0  # atno 5454 bound_to 1881
   23.0377    4.0081    3.3239 LP  0  0  0  0  0  0  0  0  0  0  0  0  # atno 5481 bound_to 3121
   21.6908    3.8314    4.2302 LP  0  0  0  0  0  0  0  0  0  0  0  0  # atno 5482 bound_to 3121
   18.2519  -11.4131   -1.2958 LP  0  0  0  0  0  0  0  0  0  0  0  0  # atno 5489 bound_to 585 
   16.9637  -10.9832   -2.2027 LP  0  0  0  0  0  0  0  0  0  0  0  0  # atno 5490 bound_to 585 

> <Gold.Score>
     Fitness  S(hb_ext) S(vdw_ext)  S(hb_int)    S(int)      intcor
     33.27       0.81      24.05       0.00      -0.61      -0.76

> <Gold.Goldscore.Fitness>
33.2671

> <Gold.Goldscore.Internal.Vdw>
-0.7258

> <Gold.Goldscore.Internal.Torsion>
-0.6399

> <Gold.Goldscore.External.Vdw>
24.0459

> <Gold.Goldscore.Internal.HBond>
0.0000

> <Gold.Goldscore.External.HBond>
0.8112

> <Gold.Goldscore.Internal.Correction>
-0.7585

> <Gold.Goldscore.Hbonds>
donor molecule, donor type, donor heavy atom, donor atom, acceptor molecule, acceptor atom, score
      P1  H  5050  5059       L1    17  0.39
      P1  H   559   566       L1    17  0.02

> <Gold.Goldscore.Internal.Vdw.Weighted>
-0.7258

> <Gold.Goldscore.Internal.Torsion.Weighted>
-0.6399

> <Gold.Goldscore.External.Vdw.Weighted>
33.0631

> <Gold.Goldscore.Internal.HBond.Weighted>
0.0000

> <Gold.Goldscore.External.HBond.Weighted>
0.8112

> <Gold.Goldscore.Internal.Correction.Weighted>
-0.7585

> <Gold.Rescore>
     Score     S(PLP)   S(hbond)     S(cho)   S(metal)  DE(clash)   DE(tors)     intcor
     35.73     -35.14       1.00       0.00       0.00       0.36       1.03       ----

> <Gold.PLP.Fitness>
35.7321

> <Gold.PLP.PLP>
-35.1406

> <Gold.PLP.part.hbond>
-2.5566

> <Gold.PLP.part.metal>
0.0000

> <Gold.PLP.part.buried>
-4.8230

> <Gold.PLP.part.nonpolar>
-29.4657

> <Gold.PLP.part.repulsive>
0.5725

> <Gold.PLP.ligand.clash>
0.3567

> <Gold.PLP.ligand.torsion>
1.0259

> <Gold.PLP.Chemscore.Hbond>
1.0000

> <Gold.PLP.Chemscore.CHOScore>
0.0000

> <Gold.PLP.Chemscore.Metal>
0.0000

> <Gold.PLP.Chemscore.Internal.Correction>
   9.000000E+99

