#       Name:                CT1002167954
#       Creating user name   hitesit
#       Creation time:       Sun Apr 16 22:56:27 2023


#       File generated by GOLD software.
#

@<TRIPOS>MOLECULE
CT1002167954|ligand_prepared|mol2|1|dock3
    29    30     1
SMALL
NO_CHARGES


@<TRIPOS>ATOM
      1 C1         186.8582  13.8910  49.9339 C.3            1 RES1               0.0000
      2 C2         187.4049  12.7011  50.7488 C.ar           1 RES1               0.0000
      3 C3         185.6166  13.3796  49.2093 C.2            1 RES1               0.0000
      4 C4         186.5785  15.0034  50.9384 C.2            1 RES1               0.0000
      5 C5         187.8514  14.4363  48.8814 C.3            1 RES1               0.0000
      6 C6         186.6156  12.0795  51.7118 C.ar           1 RES1               0.0000
      7 C7         188.6932  12.2130  50.5474 C.ar           1 RES1               0.0000
      8 N8         184.4010  13.7889  49.6729 N.am           1 RES1               0.0000
      9 O9         185.7013  12.5978  48.2703 O.2            1 RES1               0.0000
     10 N10        185.2763  15.3865  51.1260 N.am           1 RES1               0.0000
     11 O11        187.4723  15.5401  51.5812 O.2            1 RES1               0.0000
     12 C12        187.2941  15.5782  48.0462 C.3            1 RES1               0.0000
     13 C13        187.0957  11.0069  52.4448 C.ar           1 RES1               0.0000
     14 C14        189.1715  11.1404  51.2817 C.ar           1 RES1               0.0000
     15 C15        184.1720  14.8086  50.5614 C.2            1 RES1               0.0000
     16 C16        188.3736  10.5363  52.2300 C.ar           1 RES1               0.0000
     17 O17        183.0290  15.1736  50.8214 O.2            1 RES1               0.0000
     18 H18        188.7557  14.7839  49.3960 H              1 RES1               0.0000
     19 H19        188.1408  13.6174  48.2113 H              1 RES1               0.0000
     20 H20        185.6082  12.4375  51.8964 H              1 RES1               0.0000
     21 H21        189.3391  12.6733  49.8074 H              1 RES1               0.0000
     22 H22        183.5871  13.2907  49.3270 H              1 RES1               0.0000
     23 H23        185.1152  16.1757  51.7437 H              1 RES1               0.0000
     24 H24        188.0309  15.9233  47.3240 H              1 RES1               0.0000
     25 H25        186.4079  15.2605  47.5008 H              1 RES1               0.0000
     26 H26        187.0192  16.4200  48.6784 H              1 RES1               0.0000
     27 H27        186.4642  10.5359  53.1909 H              1 RES1               0.0000
     28 H28        190.1781  10.7738  51.1098 H              1 RES1               0.0000
     29 H29        188.7493   9.6958  52.8041 H              1 RES1               0.0000
@<TRIPOS>BOND
    1    1    2 1     
    2    1    3 1     
    3    1    4 1     
    4    1    5 1     
    5    2    6 ar    
    6    2    7 ar    
    7    3    8 1     
    8    3    9 2     
    9    4   10 1     
   10    4   11 2     
   11    5   12 1     
   12    5   18 1     
   13    5   19 1     
   14    6   13 ar    
   15    6   20 1     
   16    7   14 ar    
   17    7   21 1     
   18    8   15 1     
   19    8   22 1     
   20   10   15 1     
   21   10   23 1     
   22   12   24 1     
   23   12   25 1     
   24   12   26 1     
   25   13   16 ar    
   26   13   27 1     
   27   14   16 ar    
   28   14   28 1     
   29   15   17 2     
   30   16   29 1     
@<TRIPOS>SUBSTRUCTURE
      1 RES1           1
@<TRIPOS>SET
DONOR_HYDROGENS      STATIC     ATOMS    <user>   **** ""
2 22 23
ATOM$RED        STATIC     ATOMS    COLORGROUP SYSTEM
2 22 23
@<TRIPOS>COMMENT
> <Gold.Version>
2022.3.0

> <Gold.Id.Protein>
unknown|4d1n_clean|pdb

> <Gold.Protein.RotatedTorsions>
[ 16977 16944 16943 16941 ] final  155.33 input   59.98 | X-H torsion
[ 18494 18452 18451 18449 ] final  133.94 input   59.98 | X-H torsion
[ 18554 18521 18522 18523 ] final -132.52 input   91.55 | X-H torsion
[ 18707 18674 18675 18676 ] final -142.23 input  121.65 | X-H torsion
[ 18768 18733 18734 18735 ] final   16.92 input   95.18 | X-H torsion
[ 18950 18904 18905 18906 ] final -177.70 input   99.08 | X-H torsion
[ 19025 18997 18998 18999 ] final -104.47 input  121.68 | X-H torsion
[ 17185 17170 17171 17172 ] final   14.31 input   47.05 | X-H torsion
[ 17233 17212 17213 17214 ] final  -88.47 input  118.29 | X-H torsion
[ 18820 18805 18806 18807 ] final  -74.05 input  116.09 | X-H torsion
[ 19094 19049 19050 19051 ] final  101.97 input   88.91 | X-H torsion
[ 18486 18441 18442 18443 ] final -108.04 input  100.68 | X-H torsion
[ 17293 17275 17276 17277 ] final    6.55 input   51.25 | X-H torsion
[ 18289 18267 18268 18269 ] final -176.03 input   31.65 | X-H torsion
[ 18324 18309 18310 18311 ] final   90.92 input   53.83 | X-H torsion
[ 18399 18347 18348 18349 ] final  104.38 input   27.99 | X-H torsion
[ 7521 7509 7510 7511 ] final   79.45 input   80.33 | X-H torsion
[ 7486 7448 7449 7450 ] final   25.17 input   99.31 | X-H torsion
[ 18600 18585 18586 18587 ] final  -81.74 input  129.83 | X-H torsion
[ 10110 10088 10087 10084 ] final  -51.61 input   59.98 | X-H torsion
[ 18293 18272 18271 18268 ] final  150.30 input   59.99 | X-H torsion
[ 18650 18622 18620 18617 ] final -173.31 input   59.97 | X-H torsion
[ 18866 18836 18837 18838 ] final  -19.08 input   87.55 | X-H torsion
[ 22436 22408 22409 22410 ] final  -76.83 input   59.22 | X-H torsion
[ 10146 10126 10127 10128 ] final -135.47 input   20.82 | X-H torsion
[ 18225 18192 18193 18194 ] final  -66.20 input   40.98 | X-H torsion
[ 11813 11769 11770 11771 ] final  159.66 input   85.42 | X-H torsion
[ 16969 16933 16934 16935 ] final  -67.54 input   88.91 | X-H torsion
[ 27198 18524 18523 18522 ] final   79.65 input    0.00 | X-H torsion
[ 27200 18619 18618 18617 ] final  107.87 input    0.00 | X-H torsion
[ 27203 18677 18676 18675 ] final  -20.15 input    0.00 | X-H torsion
[ 27223 17119 17118 17117 ] final  -70.84 input    0.00 | X-H torsion
[ 27227 11596 11595 11594 ] final -123.95 input   -0.00 | X-H torsion
[ 27231 17044 17043 17042 ] final  117.50 input    0.00 | X-H torsion
[ 27233 18736 18735 18734 ] final  -44.32 input   -0.00 | X-H torsion
[ 27235 18588 18587 18586 ] final -124.52 input    0.00 | X-H torsion
[ 27238 18907 18906 18905 ] final   96.15 input    0.00 | X-H torsion
[ 27240 19000 18999 18998 ] final   79.23 input    0.00 | X-H torsion
[ 27243 17173 17172 17171 ] final  -96.21 input    0.00 | X-H torsion
[ 27245 18350 18349 18348 ] final -103.28 input    0.00 | X-H torsion
[ 27248 11406 11405 11404 ] final  -45.22 input   -0.00 | X-H torsion
[ 27250 18195 18194 18193 ] final   90.27 input    0.00 | X-H torsion
[ 27254 17215 17214 17213 ] final    3.67 input   -0.00 | X-H torsion
[ 27260 18312 18311 18310 ] final   73.35 input   -0.00 | X-H torsion
[ 27262 18444 18443 18442 ] final  -57.42 input    0.00 | X-H torsion
[ 27265 18270 18269 18268 ] final  178.60 input    0.00 | X-H torsion
[ 27273 16936 16935 16934 ] final   26.77 input   -0.00 | X-H torsion

> <Gold.Protein.ActiveResidues>
 TRP414  CYS420  VAL421  GLY422  LEU460  SER462  ALA463  SER482  GLN483  ILE485 
 ARG486  TYR487  ASP500  ASN503  TRP566  TYR567  LEU569  PRO570  ALA571  VAL572 
 SER573  ASN574  PHE589  SER590  GLY591  TRP592  TYR593  MET594  GLY595  THR596 
 GLU597  ILE598  GLY599  VAL600  ARG601  ASP602  TYR603  ARG608  ILE653  VAL654 
 TRP683  PRO687  HEM750  H4B760 

> <Gold.Protein.RotatedAtoms>
  195.1277   10.7383   53.3565 H   0  0  0  0  0  0  0  0  0  0  0  0  # atno 7486 bound_to 7448
  194.9130    9.1656   53.5536 H   0  0  0  0  0  0  0  0  0  0  0  0  # atno 7521 bound_to 7509
  188.8582    2.7235   51.0063 H   0  0  0  0  0  0  0  0  0  0  0  0  # atno 10110 bound_to 10088
  187.9670    0.8270   47.5657 H   0  0  0  0  0  0  0  0  0  0  0  0  # atno 10146 bound_to 10126
  175.8127   16.5929   48.0525 H   0  0  0  0  0  0  0  0  0  0  0  0  # atno 11813 bound_to 11769
  175.9482   12.3393   54.4781 H   0  0  0  0  0  0  0  0  0  0  0  0  # atno 16969 bound_to 16933
  179.8567   15.6461   49.1028 H   0  0  0  0  0  0  0  0  0  0  0  0  # atno 16977 bound_to 16944
  183.2124   10.9282   47.2693 H   0  0  0  0  0  0  0  0  0  0  0  0  # atno 17185 bound_to 17170
  184.5417   10.6622   45.3403 H   0  0  0  0  0  0  0  0  0  0  0  0  # atno 17233 bound_to 17212
  185.9281   12.9615   42.0980 H   0  0  0  0  0  0  0  0  0  0  0  0  # atno 17293 bound_to 17275
  186.0220    7.1479   42.4901 H   0  0  0  0  0  0  0  0  0  0  0  0  # atno 18225 bound_to 18192
  186.6131    6.3139   45.1937 H   0  0  0  0  0  0  0  0  0  0  0  0  # atno 18289 bound_to 18267
  183.6932    4.2113   47.4357 H   0  0  0  0  0  0  0  0  0  0  0  0  # atno 18293 bound_to 18272
  187.3567    6.7231   49.5132 H   0  0  0  0  0  0  0  0  0  0  0  0  # atno 18324 bound_to 18309
  187.0965    5.2643   53.0611 H   0  0  0  0  0  0  0  0  0  0  0  0  # atno 18399 bound_to 18347
  185.5603    8.0370   54.3618 H   0  0  0  0  0  0  0  0  0  0  0  0  # atno 18486 bound_to 18441
  181.5111   13.0800   51.2194 H   0  0  0  0  0  0  0  0  0  0  0  0  # atno 18494 bound_to 18452
  187.1302    9.7492   56.8641 H   0  0  0  0  0  0  0  0  0  0  0  0  # atno 18554 bound_to 18521
  186.2362   12.0122   59.0143 H   0  0  0  0  0  0  0  0  0  0  0  0  # atno 18600 bound_to 18585
  190.0602   16.4132   59.9527 H   0  0  0  0  0  0  0  0  0  0  0  0  # atno 18650 bound_to 18622
  187.3813   16.3392   58.1812 H   0  0  0  0  0  0  0  0  0  0  0  0  # atno 18707 bound_to 18674
  184.3951   16.7068   57.9265 H   0  0  0  0  0  0  0  0  0  0  0  0  # atno 18768 bound_to 18733
  182.1541   17.8502   58.6422 H   0  0  0  0  0  0  0  0  0  0  0  0  # atno 18820 bound_to 18805
  183.5322   19.6544   59.5193 H   0  0  0  0  0  0  0  0  0  0  0  0  # atno 18866 bound_to 18836
  185.9861   20.9537   58.1671 H   0  0  0  0  0  0  0  0  0  0  0  0  # atno 18950 bound_to 18904
  183.8329   21.3221   55.0858 H   0  0  0  0  0  0  0  0  0  0  0  0  # atno 19025 bound_to 18997
  181.3491   20.7660   57.3199 H   0  0  0  0  0  0  0  0  0  0  0  0  # atno 19094 bound_to 19049
  185.5334    7.5128   60.8392 H   0  0  0  0  0  0  0  0  0  0  0  0  # atno 22436 bound_to 22408
  180.8961   14.4035   48.9524 LP  0  0  0  0  0  0  0  0  0  0  0  0  # atno 27193 bound_to 16944
  180.7945   15.2208   50.3625 LP  0  0  0  0  0  0  0  0  0  0  0  0  # atno 27194 bound_to 16944
  182.6778   14.1544   51.5847 LP  0  0  0  0  0  0  0  0  0  0  0  0  # atno 27195 bound_to 18452
  181.2192   14.2498   52.3127 LP  0  0  0  0  0  0  0  0  0  0  0  0  # atno 27196 bound_to 18452
  186.8742   11.3696   56.2567 LP  0  0  0  0  0  0  0  0  0  0  0  0  # atno 27197 bound_to 18521
  185.5877   13.1160   57.2811 LP  0  0  0  0  0  0  0  0  0  0  0  0  # atno 27198 bound_to 18524
  186.7177   14.1962   58.0268 LP  0  0  0  0  0  0  0  0  0  0  0  0  # atno 27199 bound_to 18524
  186.7595   18.9000   58.1319 LP  0  0  0  0  0  0  0  0  0  0  0  0  # atno 27200 bound_to 18619
  185.2412   18.6563   58.9291 LP  0  0  0  0  0  0  0  0  0  0  0  0  # atno 27201 bound_to 18619
  185.7367   15.8009   58.4121 LP  0  0  0  0  0  0  0  0  0  0  0  0  # atno 27202 bound_to 18674
  185.2037   18.8055   55.5464 LP  0  0  0  0  0  0  0  0  0  0  0  0  # atno 27203 bound_to 18677
  183.5197   18.4002   55.5478 LP  0  0  0  0  0  0  0  0  0  0  0  0  # atno 27204 bound_to 18677
  184.1502   16.0128   56.3379 LP  0  0  0  0  0  0  0  0  0  0  0  0  # atno 27209 bound_to 18733
  184.2549   20.7577   58.0529 LP  0  0  0  0  0  0  0  0  0  0  0  0  # atno 27210 bound_to 18904
  183.2311   20.1566   56.2390 LP  0  0  0  0  0  0  0  0  0  0  0  0  # atno 27211 bound_to 18997
  185.5393    8.9566   49.0245 LP  0  0  0  0  0  0  0  0  0  0  0  0  # atno 27223 bound_to 17119
  184.4755    7.7285   48.4244 LP  0  0  0  0  0  0  0  0  0  0  0  0  # atno 27224 bound_to 17119
  183.2404    9.4151   48.1434 LP  0  0  0  0  0  0  0  0  0  0  0  0  # atno 27225 bound_to 17170
  186.1311    9.9695   45.5801 LP  0  0  0  0  0  0  0  0  0  0  0  0  # atno 27226 bound_to 17212
  178.9360   13.6149   47.8213 LP  0  0  0  0  0  0  0  0  0  0  0  0  # atno 27227 bound_to 11596
  179.7832   13.0140   46.4352 LP  0  0  0  0  0  0  0  0  0  0  0  0  # atno 27228 bound_to 11596
  180.3679   10.4142   49.3641 LP  0  0  0  0  0  0  0  0  0  0  0  0  # atno 27231 bound_to 17044
  180.2801    9.0160   48.3457 LP  0  0  0  0  0  0  0  0  0  0  0  0  # atno 27232 bound_to 17044
  182.0079   19.5460   57.2307 LP  0  0  0  0  0  0  0  0  0  0  0  0  # atno 27233 bound_to 18736
  181.0514   19.4394   58.6708 LP  0  0  0  0  0  0  0  0  0  0  0  0  # atno 27234 bound_to 18736
  184.2481   15.9278   59.2039 LP  0  0  0  0  0  0  0  0  0  0  0  0  # atno 27235 bound_to 18588
  183.5359   15.3635   60.6784 LP  0  0  0  0  0  0  0  0  0  0  0  0  # atno 27236 bound_to 18588
  183.2456   16.8171   59.5406 LP  0  0  0  0  0  0  0  0  0  0  0  0  # atno 27237 bound_to 18805
  183.3641   23.3716   54.5780 LP  0  0  0  0  0  0  0  0  0  0  0  0  # atno 27238 bound_to 18907
  182.8551   23.5083   56.2279 LP  0  0  0  0  0  0  0  0  0  0  0  0  # atno 27239 bound_to 18907
  179.0645   21.7992   54.5932 LP  0  0  0  0  0  0  0  0  0  0  0  0  # atno 27240 bound_to 19000
  179.9782   23.2395   54.8944 LP  0  0  0  0  0  0  0  0  0  0  0  0  # atno 27241 bound_to 19000
  180.8374   21.7172   55.9452 LP  0  0  0  0  0  0  0  0  0  0  0  0  # atno 27242 bound_to 19049
  183.5252   10.2093   43.2642 LP  0  0  0  0  0  0  0  0  0  0  0  0  # atno 27243 bound_to 17173
  182.8680   11.3855   44.3527 LP  0  0  0  0  0  0  0  0  0  0  0  0  # atno 27244 bound_to 17173
  187.8936    7.9944   54.9824 LP  0  0  0  0  0  0  0  0  0  0  0  0  # atno 27245 bound_to 18350
  187.4291    8.5142   53.3968 LP  0  0  0  0  0  0  0  0  0  0  0  0  # atno 27246 bound_to 18350
  184.5430    7.7261   55.7485 LP  0  0  0  0  0  0  0  0  0  0  0  0  # atno 27247 bound_to 18441
  185.2683   14.3769   41.8231 LP  0  0  0  0  0  0  0  0  0  0  0  0  # atno 27248 bound_to 11406
  184.9213   14.3444   43.5197 LP  0  0  0  0  0  0  0  0  0  0  0  0  # atno 27249 bound_to 11406
  185.7378    8.1978   45.0517 LP  0  0  0  0  0  0  0  0  0  0  0  0  # atno 27250 bound_to 18195
  187.3355    8.5593   45.6144 LP  0  0  0  0  0  0  0  0  0  0  0  0  # atno 27251 bound_to 18195
  186.9736    9.5712   43.2583 LP  0  0  0  0  0  0  0  0  0  0  0  0  # atno 27254 bound_to 17215
  186.6122    9.8777   41.5924 LP  0  0  0  0  0  0  0  0  0  0  0  0  # atno 27255 bound_to 17215
  185.2824   11.4851   42.7607 LP  0  0  0  0  0  0  0  0  0  0  0  0  # atno 27256 bound_to 17275
  187.5751    5.0222   45.8692 LP  0  0  0  0  0  0  0  0  0  0  0  0  # atno 27257 bound_to 18267
  186.4621    5.3650   48.8633 LP  0  0  0  0  0  0  0  0  0  0  0  0  # atno 27258 bound_to 18309
  186.4671    6.4902   51.9775 LP  0  0  0  0  0  0  0  0  0  0  0  0  # atno 27259 bound_to 18347
  184.8139    3.8879   51.7089 LP  0  0  0  0  0  0  0  0  0  0  0  0  # atno 27260 bound_to 18312
  184.2663    5.4785   51.2967 LP  0  0  0  0  0  0  0  0  0  0  0  0  # atno 27261 bound_to 18312
  185.3662    8.7078   58.2836 LP  0  0  0  0  0  0  0  0  0  0  0  0  # atno 27262 bound_to 18444
  187.0381    8.3187   58.0520 LP  0  0  0  0  0  0  0  0  0  0  0  0  # atno 27263 bound_to 18444
  195.6375    9.0988   55.1383 LP  0  0  0  0  0  0  0  0  0  0  0  0  # atno 27264 bound_to 7509
  187.7684    3.5168   48.9162 LP  0  0  0  0  0  0  0  0  0  0  0  0  # atno 27265 bound_to 18270
  187.2405    3.6585   47.2727 LP  0  0  0  0  0  0  0  0  0  0  0  0  # atno 27266 bound_to 18270
  196.3943   11.9439   53.4493 LP  0  0  0  0  0  0  0  0  0  0  0  0  # atno 27267 bound_to 7448
  186.9664   11.9747   60.6011 LP  0  0  0  0  0  0  0  0  0  0  0  0  # atno 27268 bound_to 18585
  190.3817    2.1583   51.0950 LP  0  0  0  0  0  0  0  0  0  0  0  0  # atno 27269 bound_to 10088
  189.1356    1.2402   51.6154 LP  0  0  0  0  0  0  0  0  0  0  0  0  # atno 27270 bound_to 10088
  185.2799    3.8782   47.2971 LP  0  0  0  0  0  0  0  0  0  0  0  0  # atno 27271 bound_to 18272
  184.4324    4.3854   45.9967 LP  0  0  0  0  0  0  0  0  0  0  0  0  # atno 27272 bound_to 18272
  178.3395   11.6608   54.3355 LP  0  0  0  0  0  0  0  0  0  0  0  0  # atno 27273 bound_to 16936
  179.3176   10.2924   53.9222 LP  0  0  0  0  0  0  0  0  0  0  0  0  # atno 27274 bound_to 16936

> <Gold.Score>
     Fitness  S(hb_ext) S(vdw_ext)  S(hb_int)    S(int)      intcor
     44.11       0.64      31.65       0.00      -0.05      -0.77

> <Gold.Goldscore.Fitness>
44.1082

> <Gold.Goldscore.Internal.Vdw>
-0.4411

> <Gold.Goldscore.Internal.Torsion>
-0.3743

> <Gold.Goldscore.External.Vdw>
31.6454

> <Gold.Goldscore.Internal.HBond>
0.0000

> <Gold.Goldscore.External.HBond>
0.6425

> <Gold.Goldscore.Internal.Correction>
-0.7686

> <Gold.Goldscore.Hbonds>
donor molecule, donor type, donor heavy atom, donor atom, acceptor molecule, acceptor atom, score
      P1  H 11457 11491       L1    17  0.15
      P1  H 16849 16887       L1    17  0.04
      L1  H     8    22       P1 11458  0.04

> <Gold.Goldscore.Internal.Vdw.Weighted>
-0.4411

> <Gold.Goldscore.Internal.Torsion.Weighted>
-0.3743

> <Gold.Goldscore.External.Vdw.Weighted>
43.5124

> <Gold.Goldscore.Internal.HBond.Weighted>
0.0000

> <Gold.Goldscore.External.HBond.Weighted>
0.6425

> <Gold.Goldscore.Internal.Correction.Weighted>
-0.7686

> <Gold.Rescore>
     Score     S(PLP)   S(hbond)     S(cho)   S(metal)  DE(clash)   DE(tors)     intcor
    -13.08      13.66       0.26       0.00       0.00       0.00       0.09       ----

> <Gold.PLP.Fitness>
-13.0753

> <Gold.PLP.PLP>
13.6616

> <Gold.PLP.part.hbond>
-0.3205

> <Gold.PLP.part.metal>
0.0000

> <Gold.PLP.part.buried>
36.8265

> <Gold.PLP.part.nonpolar>
-35.0799

> <Gold.PLP.part.repulsive>
13.1565

> <Gold.PLP.ligand.clash>
0.0000

> <Gold.PLP.ligand.torsion>
0.0908

> <Gold.PLP.Chemscore.Hbond>
0.2560

> <Gold.PLP.Chemscore.CHOScore>
0.0000

> <Gold.PLP.Chemscore.Metal>
0.0000

> <Gold.Chemscore.Hbonds>
donor molecule, donor type, donor heavy atom, donor atom, acceptor molecule, acceptor atom, score
      L1  H     8    22       P1 11458  0.56

> <Gold.PLP.Chemscore.Internal.Correction>
   9.000000E+99

#       Name:                CT1002167954
#       Creating user name   hitesit
#       Creation time:       Sun Apr 16 22:56:33 2023


#       File generated by GOLD software.
#

@<TRIPOS>MOLECULE
CT1002167954|ligand_prepared|mol2|1|dock10
    29    30     1
SMALL
NO_CHARGES


@<TRIPOS>ATOM
      1 C1         186.9339  14.1266  49.9412 C.3            1 RES1               0.0000
      2 C2         187.5011  12.8805  50.6515 C.ar           1 RES1               0.0000
      3 C3         185.6155  13.6947  49.3060 C.2            1 RES1               0.0000
      4 C4         186.7853  15.1989  51.0148 C.2            1 RES1               0.0000
      5 C5         187.8539  14.6860  48.8312 C.3            1 RES1               0.0000
      6 C6         188.7912  12.4353  50.3790 C.ar           1 RES1               0.0000
      7 C7         186.7485  12.1686  51.5818 C.ar           1 RES1               0.0000
      8 N8         184.4613  14.1242  49.8919 N.am           1 RES1               0.0000
      9 O9         185.5885  12.9560  48.3293 O.2            1 RES1               0.0000
     10 N10        185.5201  15.6185  51.3325 N.am           1 RES1               0.0000
     11 O11        187.7515  15.6723  51.6003 O.2            1 RES1               0.0000
     12 C12        187.2389  15.8335  48.0457 C.3            1 RES1               0.0000
     13 C13        189.3113  11.3207  51.0157 C.ar           1 RES1               0.0000
     14 C14        187.2705  11.0541  52.2172 C.ar           1 RES1               0.0000
     15 C15        184.3496  15.1077  50.8415 C.2            1 RES1               0.0000
     16 C16        188.5516  10.6296  51.9354 C.ar           1 RES1               0.0000
     17 O17        183.2484  15.5001  51.2165 O.2            1 RES1               0.0000
     18 H18        188.7888  15.0324  49.2888 H              1 RES1               0.0000
     19 H19        188.1015  13.8747  48.1356 H              1 RES1               0.0000
     20 H20        189.4030  12.9649  49.6563 H              1 RES1               0.0000
     21 H21        185.7379  12.4837  51.8184 H              1 RES1               0.0000
     22 H22        183.6017  13.6722  49.5967 H              1 RES1               0.0000
     23 H23        185.4439  16.3825  51.9965 H              1 RES1               0.0000
     24 H24        187.9256  16.1885  47.2800 H              1 RES1               0.0000
     25 H25        186.3200  15.5173  47.5564 H              1 RES1               0.0000
     26 H26        187.0032  16.6681  48.7028 H              1 RES1               0.0000
     27 H27        190.3195  10.9899  50.7894 H              1 RES1               0.0000
     28 H28        186.6688  10.5129  52.9399 H              1 RES1               0.0000
     29 H29        188.9594   9.7567  52.4343 H              1 RES1               0.0000
@<TRIPOS>BOND
    1    1    2 1     
    2    1    3 1     
    3    1    4 1     
    4    1    5 1     
    5    2    6 ar    
    6    2    7 ar    
    7    3    8 1     
    8    3    9 2     
    9    4   10 1     
   10    4   11 2     
   11    5   12 1     
   12    5   18 1     
   13    5   19 1     
   14    6   13 ar    
   15    6   20 1     
   16    7   14 ar    
   17    7   21 1     
   18    8   15 1     
   19    8   22 1     
   20   10   15 1     
   21   10   23 1     
   22   12   24 1     
   23   12   25 1     
   24   12   26 1     
   25   13   16 ar    
   26   13   27 1     
   27   14   16 ar    
   28   14   28 1     
   29   15   17 2     
   30   16   29 1     
@<TRIPOS>SUBSTRUCTURE
      1 RES1           1
@<TRIPOS>SET
DONOR_HYDROGENS      STATIC     ATOMS    <user>   **** ""
2 22 23
ATOM$RED        STATIC     ATOMS    COLORGROUP SYSTEM
2 22 23
@<TRIPOS>COMMENT
> <Gold.Version>
2022.3.0

> <Gold.Id.Protein>
unknown|4d1n_clean|pdb

> <Gold.Protein.RotatedTorsions>
[ 16977 16944 16943 16941 ] final -176.60 input   59.98 | X-H torsion
[ 18494 18452 18451 18449 ] final -134.41 input   59.98 | X-H torsion
[ 18554 18521 18522 18523 ] final -177.73 input   91.55 | X-H torsion
[ 18707 18674 18675 18676 ] final  -36.17 input  121.65 | X-H torsion
[ 18768 18733 18734 18735 ] final  114.38 input   95.18 | X-H torsion
[ 18950 18904 18905 18906 ] final   47.89 input   99.08 | X-H torsion
[ 19025 18997 18998 18999 ] final   61.98 input  121.68 | X-H torsion
[ 17185 17170 17171 17172 ] final  134.98 input   47.05 | X-H torsion
[ 17233 17212 17213 17214 ] final  -88.92 input  118.29 | X-H torsion
[ 18820 18805 18806 18807 ] final  -81.45 input  116.09 | X-H torsion
[ 19094 19049 19050 19051 ] final  164.10 input   88.91 | X-H torsion
[ 18486 18441 18442 18443 ] final   73.25 input  100.68 | X-H torsion
[ 17293 17275 17276 17277 ] final   47.70 input   51.25 | X-H torsion
[ 18289 18267 18268 18269 ] final  -92.41 input   31.65 | X-H torsion
[ 18324 18309 18310 18311 ] final   30.21 input   53.83 | X-H torsion
[ 18399 18347 18348 18349 ] final  102.72 input   27.99 | X-H torsion
[ 7521 7509 7510 7511 ] final   29.61 input   80.33 | X-H torsion
[ 7486 7448 7449 7450 ] final  103.67 input   99.31 | X-H torsion
[ 18600 18585 18586 18587 ] final  -70.00 input  129.83 | X-H torsion
[ 10110 10088 10087 10084 ] final  -13.20 input   59.98 | X-H torsion
[ 18293 18272 18271 18268 ] final    1.11 input   59.99 | X-H torsion
[ 18650 18622 18620 18617 ] final   55.68 input   59.97 | X-H torsion
[ 18866 18836 18837 18838 ] final -113.49 input   87.55 | X-H torsion
[ 22436 22408 22409 22410 ] final -157.32 input   59.22 | X-H torsion
[ 10146 10126 10127 10128 ] final  -31.31 input   20.82 | X-H torsion
[ 18225 18192 18193 18194 ] final  -53.55 input   40.98 | X-H torsion
[ 11813 11769 11770 11771 ] final  137.25 input   85.42 | X-H torsion
[ 16969 16933 16934 16935 ] final -111.62 input   88.91 | X-H torsion
[ 27198 18524 18523 18522 ] final   90.37 input    0.00 | X-H torsion
[ 27200 18619 18618 18617 ] final   46.32 input    0.00 | X-H torsion
[ 27203 18677 18676 18675 ] final  -21.27 input    0.00 | X-H torsion
[ 27223 17119 17118 17117 ] final -170.38 input    0.00 | X-H torsion
[ 27227 11596 11595 11594 ] final -133.71 input   -0.00 | X-H torsion
[ 27231 17044 17043 17042 ] final   68.51 input    0.00 | X-H torsion
[ 27233 18736 18735 18734 ] final   95.34 input   -0.00 | X-H torsion
[ 27235 18588 18587 18586 ] final  133.20 input    0.00 | X-H torsion
[ 27238 18907 18906 18905 ] final -135.48 input    0.00 | X-H torsion
[ 27240 19000 18999 18998 ] final  144.30 input    0.00 | X-H torsion
[ 27243 17173 17172 17171 ] final -158.68 input    0.00 | X-H torsion
[ 27245 18350 18349 18348 ] final -142.95 input    0.00 | X-H torsion
[ 27248 11406 11405 11404 ] final -120.68 input   -0.00 | X-H torsion
[ 27250 18195 18194 18193 ] final  -68.98 input    0.00 | X-H torsion
[ 27254 17215 17214 17213 ] final   36.54 input   -0.00 | X-H torsion
[ 27260 18312 18311 18310 ] final -153.92 input   -0.00 | X-H torsion
[ 27262 18444 18443 18442 ] final -125.21 input    0.00 | X-H torsion
[ 27265 18270 18269 18268 ] final   46.73 input    0.00 | X-H torsion
[ 27273 16936 16935 16934 ] final  -49.38 input   -0.00 | X-H torsion

> <Gold.Protein.ActiveResidues>
 TRP414  CYS420  VAL421  GLY422  LEU460  SER462  ALA463  SER482  GLN483  ILE485 
 ARG486  TYR487  ASP500  ASN503  TRP566  TYR567  LEU569  PRO570  ALA571  VAL572 
 SER573  ASN574  PHE589  SER590  GLY591  TRP592  TYR593  MET594  GLY595  THR596 
 GLU597  ILE598  GLY599  VAL600  ARG601  ASP602  TYR603  ARG608  ILE653  VAL654 
 TRP683  PRO687  HEM750  H4B760 

> <Gold.Protein.RotatedAtoms>
  195.0835   11.7894   53.7619 H   0  0  0  0  0  0  0  0  0  0  0  0  # atno 7486 bound_to 7448
  195.5968    8.8870   53.5717 H   0  0  0  0  0  0  0  0  0  0  0  0  # atno 7521 bound_to 7509
  188.5439    2.2488   51.2416 H   0  0  0  0  0  0  0  0  0  0  0  0  # atno 10110 bound_to 10088
  188.2153    2.0973   47.0606 H   0  0  0  0  0  0  0  0  0  0  0  0  # atno 10146 bound_to 10126
  175.9799   16.8772   48.1555 H   0  0  0  0  0  0  0  0  0  0  0  0  # atno 11813 bound_to 11769
  175.4131   12.4945   54.1130 H   0  0  0  0  0  0  0  0  0  0  0  0  # atno 16969 bound_to 16933
  179.9064   15.8011   49.5265 H   0  0  0  0  0  0  0  0  0  0  0  0  # atno 16977 bound_to 16944
  182.5090    9.6460   47.7429 H   0  0  0  0  0  0  0  0  0  0  0  0  # atno 17185 bound_to 17170
  184.5427   10.6663   45.3459 H   0  0  0  0  0  0  0  0  0  0  0  0  # atno 17233 bound_to 17212
  185.3247   13.0158   42.1985 H   0  0  0  0  0  0  0  0  0  0  0  0  # atno 17293 bound_to 17275
  186.0074    7.2900   42.6194 H   0  0  0  0  0  0  0  0  0  0  0  0  # atno 18225 bound_to 18192
  187.6990    6.2987   45.6455 H   0  0  0  0  0  0  0  0  0  0  0  0  # atno 18289 bound_to 18267
  185.3803    3.9670   46.8430 H   0  0  0  0  0  0  0  0  0  0  0  0  # atno 18293 bound_to 18272
  186.4717    6.6475   49.6628 H   0  0  0  0  0  0  0  0  0  0  0  0  # atno 18324 bound_to 18309
  187.1135    5.2816   53.0701 H   0  0  0  0  0  0  0  0  0  0  0  0  # atno 18399 bound_to 18347
  184.5163    7.7373   55.7584 H   0  0  0  0  0  0  0  0  0  0  0  0  # atno 18486 bound_to 18441
  180.9748   13.9016   52.1369 H   0  0  0  0  0  0  0  0  0  0  0  0  # atno 18494 bound_to 18452
  187.6793   10.0000   56.5464 H   0  0  0  0  0  0  0  0  0  0  0  0  # atno 18554 bound_to 18521
  186.3432   12.1558   58.9888 H   0  0  0  0  0  0  0  0  0  0  0  0  # atno 18600 bound_to 18585
  188.8678   16.3227   58.7393 H   0  0  0  0  0  0  0  0  0  0  0  0  # atno 18650 bound_to 18622
  186.1076   16.7653   58.5994 H   0  0  0  0  0  0  0  0  0  0  0  0  # atno 18707 bound_to 18674
  184.0314   15.5387   57.3845 H   0  0  0  0  0  0  0  0  0  0  0  0  # atno 18768 bound_to 18733
  182.0708   17.7780   58.6747 H   0  0  0  0  0  0  0  0  0  0  0  0  # atno 18820 bound_to 18805
  183.5295   19.7374   60.8162 H   0  0  0  0  0  0  0  0  0  0  0  0  # atno 18866 bound_to 18836
  184.5829   20.2229   57.7996 H   0  0  0  0  0  0  0  0  0  0  0  0  # atno 18950 bound_to 18904
  183.1753   20.3148   56.3599 H   0  0  0  0  0  0  0  0  0  0  0  0  # atno 19025 bound_to 18997
  180.6787   20.4776   56.7703 H   0  0  0  0  0  0  0  0  0  0  0  0  # atno 19094 bound_to 19049
  186.0364    6.6830   60.2662 H   0  0  0  0  0  0  0  0  0  0  0  0  # atno 22436 bound_to 22408
  180.5958   14.6016   48.6703 LP  0  0  0  0  0  0  0  0  0  0  0  0  # atno 27193 bound_to 16944
  181.0447   14.8665   50.2178 LP  0  0  0  0  0  0  0  0  0  0  0  0  # atno 27194 bound_to 16944
  181.9436   13.1403   51.0735 LP  0  0  0  0  0  0  0  0  0  0  0  0  # atno 27195 bound_to 18452
  182.4934   14.4368   51.9001 LP  0  0  0  0  0  0  0  0  0  0  0  0  # atno 27196 bound_to 18452
  186.3407   11.1260   56.5653 LP  0  0  0  0  0  0  0  0  0  0  0  0  # atno 27197 bound_to 18521
  185.4850   13.1695   57.3942 LP  0  0  0  0  0  0  0  0  0  0  0  0  # atno 27198 bound_to 18524
  186.8204   14.1426   57.9137 LP  0  0  0  0  0  0  0  0  0  0  0  0  # atno 27199 bound_to 18524
  186.6808   19.0256   59.0057 LP  0  0  0  0  0  0  0  0  0  0  0  0  # atno 27200 bound_to 18619
  185.3199   18.5308   58.0553 LP  0  0  0  0  0  0  0  0  0  0  0  0  # atno 27201 bound_to 18619
  186.9887   15.3820   58.0010 LP  0  0  0  0  0  0  0  0  0  0  0  0  # atno 27202 bound_to 18674
  185.2015   18.8140   55.5609 LP  0  0  0  0  0  0  0  0  0  0  0  0  # atno 27203 bound_to 18677
  183.5219   18.3917   55.5333 LP  0  0  0  0  0  0  0  0  0  0  0  0  # atno 27204 bound_to 18677
  184.5018   17.1420   56.8619 LP  0  0  0  0  0  0  0  0  0  0  0  0  # atno 27209 bound_to 18733
  185.6328   21.4753   58.4139 LP  0  0  0  0  0  0  0  0  0  0  0  0  # atno 27210 bound_to 18904
  183.8752   21.1433   54.9909 LP  0  0  0  0  0  0  0  0  0  0  0  0  # atno 27211 bound_to 18997
  185.2011    8.3842   47.8814 LP  0  0  0  0  0  0  0  0  0  0  0  0  # atno 27223 bound_to 17119
  184.8137    8.3010   49.5675 LP  0  0  0  0  0  0  0  0  0  0  0  0  # atno 27224 bound_to 17119
  183.9267   10.6662   47.6813 LP  0  0  0  0  0  0  0  0  0  0  0  0  # atno 27225 bound_to 17170
  186.1301    9.9655   45.5747 LP  0  0  0  0  0  0  0  0  0  0  0  0  # atno 27226 bound_to 17212
  178.9529   13.7471   47.7586 LP  0  0  0  0  0  0  0  0  0  0  0  0  # atno 27227 bound_to 11596
  179.7663   12.8818   46.4979 LP  0  0  0  0  0  0  0  0  0  0  0  0  # atno 27228 bound_to 11596
  179.7776   10.0156   49.4559 LP  0  0  0  0  0  0  0  0  0  0  0  0  # atno 27231 bound_to 17044
  180.8703    9.4146   48.2539 LP  0  0  0  0  0  0  0  0  0  0  0  0  # atno 27232 bound_to 17044
  180.7547   19.2048   58.2086 LP  0  0  0  0  0  0  0  0  0  0  0  0  # atno 27233 bound_to 18736
  182.3047   19.7806   57.6929 LP  0  0  0  0  0  0  0  0  0  0  0  0  # atno 27234 bound_to 18736
  184.1668   16.2332   60.5149 LP  0  0  0  0  0  0  0  0  0  0  0  0  # atno 27235 bound_to 18588
  183.6172   15.0581   59.3673 LP  0  0  0  0  0  0  0  0  0  0  0  0  # atno 27236 bound_to 18588
  183.3260   16.8869   59.5092 LP  0  0  0  0  0  0  0  0  0  0  0  0  # atno 27237 bound_to 18805
  182.3518   23.2089   55.7526 LP  0  0  0  0  0  0  0  0  0  0  0  0  # atno 27238 bound_to 18907
  183.8675   23.6710   55.0533 LP  0  0  0  0  0  0  0  0  0  0  0  0  # atno 27239 bound_to 18907
  178.9389   22.3224   55.3537 LP  0  0  0  0  0  0  0  0  0  0  0  0  # atno 27240 bound_to 19000
  180.1038   22.7163   54.1339 LP  0  0  0  0  0  0  0  0  0  0  0  0  # atno 27241 bound_to 19000
  181.4910   21.9984   56.4810 LP  0  0  0  0  0  0  0  0  0  0  0  0  # atno 27242 bound_to 19049
  183.8754   11.0341   43.3255 LP  0  0  0  0  0  0  0  0  0  0  0  0  # atno 27243 bound_to 17173
  182.5179   10.5607   44.2914 LP  0  0  0  0  0  0  0  0  0  0  0  0  # atno 27244 bound_to 17173
  187.7069    8.5513   55.0018 LP  0  0  0  0  0  0  0  0  0  0  0  0  # atno 27245 bound_to 18350
  187.6158    7.9573   53.3774 LP  0  0  0  0  0  0  0  0  0  0  0  0  # atno 27246 bound_to 18350
  185.5613    8.0184   54.3862 LP  0  0  0  0  0  0  0  0  0  0  0  0  # atno 27247 bound_to 18441
  184.8170   13.5947   42.3780 LP  0  0  0  0  0  0  0  0  0  0  0  0  # atno 27248 bound_to 11406
  185.3726   15.1266   42.9649 LP  0  0  0  0  0  0  0  0  0  0  0  0  # atno 27249 bound_to 11406
  187.3687    8.6174   45.3096 LP  0  0  0  0  0  0  0  0  0  0  0  0  # atno 27250 bound_to 18195
  185.7045    8.1397   45.3565 LP  0  0  0  0  0  0  0  0  0  0  0  0  # atno 27251 bound_to 18195
  186.5291    9.3822   43.1758 LP  0  0  0  0  0  0  0  0  0  0  0  0  # atno 27254 bound_to 17215
  187.0567   10.0667   41.6748 LP  0  0  0  0  0  0  0  0  0  0  0  0  # atno 27255 bound_to 17215
  185.8822   11.4311   42.6608 LP  0  0  0  0  0  0  0  0  0  0  0  0  # atno 27256 bound_to 17275
  186.5112    5.0371   45.4264 LP  0  0  0  0  0  0  0  0  0  0  0  0  # atno 27257 bound_to 18267
  187.3162    5.4380   48.7189 LP  0  0  0  0  0  0  0  0  0  0  0  0  # atno 27258 bound_to 18309
  186.4508    6.4736   51.9688 LP  0  0  0  0  0  0  0  0  0  0  0  0  # atno 27259 bound_to 18347
  184.2015    5.3279   51.9715 LP  0  0  0  0  0  0  0  0  0  0  0  0  # atno 27260 bound_to 18312
  184.8787    4.0385   51.0340 LP  0  0  0  0  0  0  0  0  0  0  0  0  # atno 27261 bound_to 18312
  186.0890    9.1273   58.7679 LP  0  0  0  0  0  0  0  0  0  0  0  0  # atno 27262 bound_to 18444
  186.3153    7.8991   57.5677 LP  0  0  0  0  0  0  0  0  0  0  0  0  # atno 27263 bound_to 18444
  194.9609    9.3745   55.1204 LP  0  0  0  0  0  0  0  0  0  0  0  0  # atno 27264 bound_to 7509
  187.9097    3.8579   47.3784 LP  0  0  0  0  0  0  0  0  0  0  0  0  # atno 27265 bound_to 18270
  187.0992    3.3173   48.8105 LP  0  0  0  0  0  0  0  0  0  0  0  0  # atno 27266 bound_to 18270
  196.4369   10.9296   53.0581 LP  0  0  0  0  0  0  0  0  0  0  0  0  # atno 27267 bound_to 7448
  186.8618   11.8344   60.6260 LP  0  0  0  0  0  0  0  0  0  0  0  0  # atno 27268 bound_to 18585
  190.0807    2.6675   50.9080 LP  0  0  0  0  0  0  0  0  0  0  0  0  # atno 27269 bound_to 10088
  189.7531    1.2090   51.5655 LP  0  0  0  0  0  0  0  0  0  0  0  0  # atno 27270 bound_to 10088
  183.9882    4.4497   46.1527 LP  0  0  0  0  0  0  0  0  0  0  0  0  # atno 27271 bound_to 18272
  184.0248    4.0600   47.7381 LP  0  0  0  0  0  0  0  0  0  0  0  0  # atno 27272 bound_to 18272
  178.8914   11.4929   53.4364 LP  0  0  0  0  0  0  0  0  0  0  0  0  # atno 27273 bound_to 16936
  178.7657   10.4603   54.8213 LP  0  0  0  0  0  0  0  0  0  0  0  0  # atno 27274 bound_to 16936

> <Gold.Score>
     Fitness  S(hb_ext) S(vdw_ext)  S(hb_int)    S(int)      intcor
     43.95       1.43      31.52       0.00      -0.82      -0.76

> <Gold.Goldscore.Fitness>
43.9524

> <Gold.Goldscore.Internal.Vdw>
-1.1603

> <Gold.Goldscore.Internal.Torsion>
-0.4161

> <Gold.Goldscore.External.Vdw>
31.5168

> <Gold.Goldscore.Internal.HBond>
0.0000

> <Gold.Goldscore.External.HBond>
1.4347

> <Gold.Goldscore.Internal.Correction>
-0.7585

> <Gold.Goldscore.Hbonds>
donor molecule, donor type, donor heavy atom, donor atom, acceptor molecule, acceptor atom, score
      P1  H 11457 11491       L1    17  0.26
      L1  H     8    22       P1 11458  0.15

> <Gold.Goldscore.Internal.Vdw.Weighted>
-1.1603

> <Gold.Goldscore.Internal.Torsion.Weighted>
-0.4161

> <Gold.Goldscore.External.Vdw.Weighted>
43.3356

> <Gold.Goldscore.Internal.HBond.Weighted>
0.0000

> <Gold.Goldscore.External.HBond.Weighted>
1.4347

> <Gold.Goldscore.Internal.Correction.Weighted>
-0.7585

> <Gold.Rescore>
     Score     S(PLP)   S(hbond)     S(cho)   S(metal)  DE(clash)   DE(tors)     intcor
    -11.05      12.41       0.53       0.00       0.00       0.00       0.12       ----

> <Gold.PLP.Fitness>
-11.0538

> <Gold.PLP.PLP>
12.4088

> <Gold.PLP.part.hbond>
-3.4744

> <Gold.PLP.part.metal>
0.0000

> <Gold.PLP.part.buried>
40.9734

> <Gold.PLP.part.nonpolar>
-41.8598

> <Gold.PLP.part.repulsive>
15.3761

> <Gold.PLP.ligand.clash>
0.0000

> <Gold.PLP.ligand.torsion>
0.1181

> <Gold.PLP.Chemscore.Hbond>
0.5304

> <Gold.PLP.Chemscore.CHOScore>
0.0000

> <Gold.PLP.Chemscore.Metal>
0.0000

> <Gold.Chemscore.Hbonds>
donor molecule, donor type, donor heavy atom, donor atom, acceptor molecule, acceptor atom, score
      L1  H     8    22       P1 11458  0.59

> <Gold.PLP.Chemscore.Internal.Correction>
   9.000000E+99

#       Name:                CT1002167954
#       Creating user name   hitesit
#       Creation time:       Sun Apr 16 22:56:32 2023


#       File generated by GOLD software.
#

@<TRIPOS>MOLECULE
CT1002167954|ligand_prepared|mol2|1|dock9
    29    30     1
SMALL
NO_CHARGES


@<TRIPOS>ATOM
      1 C1         188.3001  11.1213  50.3628 C.3            1 RES1               0.0000
      2 C2         188.5184  12.4083  49.5413 C.ar           1 RES1               0.0000
      3 C3         187.3984  10.2233  49.5208 C.2            1 RES1               0.0000
      4 C4         189.6859  10.5418  50.6243 C.2            1 RES1               0.0000
      5 C5         187.6167  11.3607  51.7293 C.3            1 RES1               0.0000
      6 C6         189.5718  12.5012  48.6365 C.ar           1 RES1               0.0000
      7 C7         187.6748  13.5078  49.6751 C.ar           1 RES1               0.0000
      8 N8         187.9693   9.1410  48.9188 N.am           1 RES1               0.0000
      9 O9         186.2129  10.4831  49.3552 O.2            1 RES1               0.0000
     10 N10        189.9958   9.3357  50.0525 N.am           1 RES1               0.0000
     11 O11        190.5180  11.1267  51.3067 O.2            1 RES1               0.0000
     12 C12        187.7928  10.2139  52.7121 C.3            1 RES1               0.0000
     13 C13        189.7728  13.6506  47.8903 C.ar           1 RES1               0.0000
     14 C14        187.8778  14.6564  48.9281 C.ar           1 RES1               0.0000
     15 C15        189.2113   8.6237  49.1865 C.2            1 RES1               0.0000
     16 C16        188.9258  14.7287  48.0352 C.ar           1 RES1               0.0000
     17 O17        189.5815   7.5731  48.6704 O.2            1 RES1               0.0000
     18 H18        188.0291  12.2743  52.1750 H              1 RES1               0.0000
     19 H19        186.5444  11.5227  51.5643 H              1 RES1               0.0000
     20 H20        190.2500  11.6639  48.5108 H              1 RES1               0.0000
     21 H21        186.8445  13.4739  50.3722 H              1 RES1               0.0000
     22 H22        187.4223   8.6729  48.2032 H              1 RES1               0.0000
     23 H23        190.8946   8.9310  50.2949 H              1 RES1               0.0000
     24 H24        187.2943  10.4332  53.6540 H              1 RES1               0.0000
     25 H25        187.3711   9.2944  52.3116 H              1 RES1               0.0000
     26 H26        188.8471  10.0415  52.9188 H              1 RES1               0.0000
     27 H27        190.5999  13.7030  47.1900 H              1 RES1               0.0000
     28 H28        187.2091  15.5027  49.0458 H              1 RES1               0.0000
     29 H29        189.0833  15.6288  47.4503 H              1 RES1               0.0000
@<TRIPOS>BOND
    1    1    2 1     
    2    1    3 1     
    3    1    4 1     
    4    1    5 1     
    5    2    6 ar    
    6    2    7 ar    
    7    3    8 1     
    8    3    9 2     
    9    4   10 1     
   10    4   11 2     
   11    5   12 1     
   12    5   18 1     
   13    5   19 1     
   14    6   13 ar    
   15    6   20 1     
   16    7   14 ar    
   17    7   21 1     
   18    8   15 1     
   19    8   22 1     
   20   10   15 1     
   21   10   23 1     
   22   12   24 1     
   23   12   25 1     
   24   12   26 1     
   25   13   16 ar    
   26   13   27 1     
   27   14   16 ar    
   28   14   28 1     
   29   15   17 2     
   30   16   29 1     
@<TRIPOS>SUBSTRUCTURE
      1 RES1           1
@<TRIPOS>SET
DONOR_HYDROGENS      STATIC     ATOMS    <user>   **** ""
2 22 23
ATOM$RED        STATIC     ATOMS    COLORGROUP SYSTEM
2 22 23
@<TRIPOS>COMMENT
> <Gold.Version>
2022.3.0

> <Gold.Id.Protein>
unknown|4d1n_clean|pdb

> <Gold.Protein.RotatedTorsions>
[ 16977 16944 16943 16941 ] final   50.67 input   59.98 | X-H torsion
[ 18494 18452 18451 18449 ] final  -40.03 input   59.98 | X-H torsion
[ 18554 18521 18522 18523 ] final -110.70 input   91.55 | X-H torsion
[ 18707 18674 18675 18676 ] final  -95.60 input  121.65 | X-H torsion
[ 18768 18733 18734 18735 ] final  151.52 input   95.18 | X-H torsion
[ 18950 18904 18905 18906 ] final  134.01 input   99.08 | X-H torsion
[ 19025 18997 18998 18999 ] final   97.83 input  121.68 | X-H torsion
[ 17185 17170 17171 17172 ] final -105.14 input   47.05 | X-H torsion
[ 17233 17212 17213 17214 ] final   77.61 input  118.29 | X-H torsion
[ 18820 18805 18806 18807 ] final -106.55 input  116.09 | X-H torsion
[ 19094 19049 19050 19051 ] final   45.14 input   88.91 | X-H torsion
[ 18486 18441 18442 18443 ] final  -55.08 input  100.68 | X-H torsion
[ 17293 17275 17276 17277 ] final -140.18 input   51.25 | X-H torsion
[ 18289 18267 18268 18269 ] final  -93.95 input   31.65 | X-H torsion
[ 18324 18309 18310 18311 ] final  -27.63 input   53.83 | X-H torsion
[ 18399 18347 18348 18349 ] final  123.96 input   27.99 | X-H torsion
[ 7521 7509 7510 7511 ] final   52.05 input   80.33 | X-H torsion
[ 7486 7448 7449 7450 ] final  -87.89 input   99.31 | X-H torsion
[ 18600 18585 18586 18587 ] final  -62.47 input  129.83 | X-H torsion
[ 10110 10088 10087 10084 ] final   96.45 input   59.98 | X-H torsion
[ 18293 18272 18271 18268 ] final  -45.26 input   59.99 | X-H torsion
[ 18650 18622 18620 18617 ] final  144.54 input   59.97 | X-H torsion
[ 18866 18836 18837 18838 ] final   72.81 input   87.55 | X-H torsion
[ 22436 22408 22409 22410 ] final  129.42 input   59.22 | X-H torsion
[ 10146 10126 10127 10128 ] final -173.28 input   20.82 | X-H torsion
[ 18225 18192 18193 18194 ] final  -81.38 input   40.98 | X-H torsion
[ 11813 11769 11770 11771 ] final  126.31 input   85.42 | X-H torsion
[ 16969 16933 16934 16935 ] final -135.88 input   88.91 | X-H torsion
[ 27198 18524 18523 18522 ] final   -7.08 input    0.00 | X-H torsion
[ 27200 18619 18618 18617 ] final  -75.01 input    0.00 | X-H torsion
[ 27203 18677 18676 18675 ] final -102.50 input    0.00 | X-H torsion
[ 27223 17119 17118 17117 ] final  -54.88 input    0.00 | X-H torsion
[ 27227 11596 11595 11594 ] final  -89.81 input   -0.00 | X-H torsion
[ 27231 17044 17043 17042 ] final -122.82 input    0.00 | X-H torsion
[ 27233 18736 18735 18734 ] final  141.06 input   -0.00 | X-H torsion
[ 27235 18588 18587 18586 ] final  -27.90 input    0.00 | X-H torsion
[ 27238 18907 18906 18905 ] final   -2.16 input    0.00 | X-H torsion
[ 27240 19000 18999 18998 ] final -130.38 input    0.00 | X-H torsion
[ 27243 17173 17172 17171 ] final   99.93 input    0.00 | X-H torsion
[ 27245 18350 18349 18348 ] final   32.33 input    0.00 | X-H torsion
[ 27248 11406 11405 11404 ] final -129.37 input   -0.00 | X-H torsion
[ 27250 18195 18194 18193 ] final   24.11 input    0.00 | X-H torsion
[ 27254 17215 17214 17213 ] final    5.27 input   -0.00 | X-H torsion
[ 27260 18312 18311 18310 ] final  171.30 input   -0.00 | X-H torsion
[ 27262 18444 18443 18442 ] final  -44.20 input    0.00 | X-H torsion
[ 27265 18270 18269 18268 ] final   50.04 input    0.00 | X-H torsion
[ 27273 16936 16935 16934 ] final   71.70 input   -0.00 | X-H torsion

> <Gold.Protein.ActiveResidues>
 TRP414  CYS420  VAL421  GLY422  LEU460  SER462  ALA463  SER482  GLN483  ILE485 
 ARG486  TYR487  ASP500  ASN503  TRP566  TYR567  LEU569  PRO570  ALA571  VAL572 
 SER573  ASN574  PHE589  SER590  GLY591  TRP592  TYR593  MET594  GLY595  THR596 
 GLU597  ILE598  GLY599  VAL600  ARG601  ASP602  TYR603  ARG608  ILE653  VAL654 
 TRP683  PRO687  HEM750  H4B760 

> <Gold.Protein.RotatedAtoms>
  196.5572   11.0572   53.1016 H   0  0  0  0  0  0  0  0  0  0  0  0  # atno 7486 bound_to 7448
  195.2876    9.0006   53.4837 H   0  0  0  0  0  0  0  0  0  0  0  0  # atno 7521 bound_to 7509
  189.5871    1.1843   51.5902 H   0  0  0  0  0  0  0  0  0  0  0  0  # atno 10110 bound_to 10088
  187.4090    0.7755   47.6733 H   0  0  0  0  0  0  0  0  0  0  0  0  # atno 10146 bound_to 10126
  176.0644   17.0240   48.1575 H   0  0  0  0  0  0  0  0  0  0  0  0  # atno 11813 bound_to 11769
  175.2896   12.6463   53.7954 H   0  0  0  0  0  0  0  0  0  0  0  0  # atno 16969 bound_to 16933
  180.7353   14.4963   48.7839 H   0  0  0  0  0  0  0  0  0  0  0  0  # atno 16977 bound_to 16944
  183.9709    9.9073   48.1160 H   0  0  0  0  0  0  0  0  0  0  0  0  # atno 17185 bound_to 17170
  186.1110    9.8560   45.3991 H   0  0  0  0  0  0  0  0  0  0  0  0  # atno 17233 bound_to 17212
  185.7737   11.4115   42.7120 H   0  0  0  0  0  0  0  0  0  0  0  0  # atno 17293 bound_to 17275
  186.0900    7.0001   42.3262 H   0  0  0  0  0  0  0  0  0  0  0  0  # atno 18225 bound_to 18192
  187.6838    6.3142   45.6359 H   0  0  0  0  0  0  0  0  0  0  0  0  # atno 18289 bound_to 18267
  185.0820    4.1885   46.2065 H   0  0  0  0  0  0  0  0  0  0  0  0  # atno 18293 bound_to 18272
  186.0290    5.9750   49.3550 H   0  0  0  0  0  0  0  0  0  0  0  0  # atno 18324 bound_to 18309
  186.8788    5.1035   52.9219 H   0  0  0  0  0  0  0  0  0  0  0  0  # atno 18399 bound_to 18347
  185.9161    7.7374   54.9990 H   0  0  0  0  0  0  0  0  0  0  0  0  # atno 18486 bound_to 18441
  182.1802   14.5610   52.1453 H   0  0  0  0  0  0  0  0  0  0  0  0  # atno 18494 bound_to 18452
  186.8137    9.8046   56.9621 H   0  0  0  0  0  0  0  0  0  0  0  0  # atno 18554 bound_to 18521
  186.4178   12.2446   58.9908 H   0  0  0  0  0  0  0  0  0  0  0  0  # atno 18600 bound_to 18585
  189.8985   16.7765   59.4094 H   0  0  0  0  0  0  0  0  0  0  0  0  # atno 18650 bound_to 18622
  186.9586   16.8389   58.4203 H   0  0  0  0  0  0  0  0  0  0  0  0  # atno 18707 bound_to 18674
  184.0138   15.5564   56.8181 H   0  0  0  0  0  0  0  0  0  0  0  0  # atno 18768 bound_to 18733
  181.8741   17.4855   58.8347 H   0  0  0  0  0  0  0  0  0  0  0  0  # atno 18820 bound_to 18805
  184.6336   19.0264   59.6318 H   0  0  0  0  0  0  0  0  0  0  0  0  # atno 18866 bound_to 18836
  185.7789   20.3332   57.8646 H   0  0  0  0  0  0  0  0  0  0  0  0  # atno 18950 bound_to 18904
  183.3370   19.9395   56.0023 H   0  0  0  0  0  0  0  0  0  0  0  0  # atno 19025 bound_to 18997
  181.7332   21.5018   57.1763 H   0  0  0  0  0  0  0  0  0  0  0  0  # atno 19094 bound_to 19049
  186.5690    7.1924   59.5315 H   0  0  0  0  0  0  0  0  0  0  0  0  # atno 22436 bound_to 22408
  180.9437   15.0254   50.3083 LP  0  0  0  0  0  0  0  0  0  0  0  0  # atno 27193 bound_to 16944
  179.8619   15.7568   49.3277 LP  0  0  0  0  0  0  0  0  0  0  0  0  # atno 27194 bound_to 16944
  180.9131   13.5723   51.8891 LP  0  0  0  0  0  0  0  0  0  0  0  0  # atno 27195 bound_to 18452
  182.3103   13.3409   51.0761 LP  0  0  0  0  0  0  0  0  0  0  0  0  # atno 27196 bound_to 18452
  187.1816   11.3158   56.1615 LP  0  0  0  0  0  0  0  0  0  0  0  0  # atno 27197 bound_to 18521
  186.7242   13.3885   57.0608 LP  0  0  0  0  0  0  0  0  0  0  0  0  # atno 27198 bound_to 18524
  185.5812   13.9237   58.2471 LP  0  0  0  0  0  0  0  0  0  0  0  0  # atno 27199 bound_to 18524
  185.2239   18.6456   58.8905 LP  0  0  0  0  0  0  0  0  0  0  0  0  # atno 27200 bound_to 18619
  186.7767   18.9107   58.1705 LP  0  0  0  0  0  0  0  0  0  0  0  0  # atno 27201 bound_to 18619
  186.1522   15.3097   58.1771 LP  0  0  0  0  0  0  0  0  0  0  0  0  # atno 27202 bound_to 18674
  184.3703   19.0620   56.2813 LP  0  0  0  0  0  0  0  0  0  0  0  0  # atno 27203 bound_to 18677
  184.3531   18.1437   54.8129 LP  0  0  0  0  0  0  0  0  0  0  0  0  # atno 27204 bound_to 18677
  184.5188   17.1249   57.4094 LP  0  0  0  0  0  0  0  0  0  0  0  0  # atno 27209 bound_to 18733
  184.4583   21.3670   58.3500 LP  0  0  0  0  0  0  0  0  0  0  0  0  # atno 27210 bound_to 18904
  183.7169   21.5109   55.3412 LP  0  0  0  0  0  0  0  0  0  0  0  0  # atno 27211 bound_to 18997
  185.4402    8.8929   49.2341 LP  0  0  0  0  0  0  0  0  0  0  0  0  # atno 27223 bound_to 17119
  184.5746    7.7922   48.2148 LP  0  0  0  0  0  0  0  0  0  0  0  0  # atno 27224 bound_to 17119
  182.5003   10.4112   47.3173 LP  0  0  0  0  0  0  0  0  0  0  0  0  # atno 27225 bound_to 17170
  184.6116   10.7502   45.5232 LP  0  0  0  0  0  0  0  0  0  0  0  0  # atno 27226 bound_to 17212
  178.9734   13.1109   47.8762 LP  0  0  0  0  0  0  0  0  0  0  0  0  # atno 27227 bound_to 11596
  179.7457   13.5180   46.3803 LP  0  0  0  0  0  0  0  0  0  0  0  0  # atno 27228 bound_to 11596
  180.9645    9.5511   48.2955 LP  0  0  0  0  0  0  0  0  0  0  0  0  # atno 27231 bound_to 17044
  179.6835    9.8791   49.4142 LP  0  0  0  0  0  0  0  0  0  0  0  0  # atno 27232 bound_to 17044
  181.1130   19.4754   58.7097 LP  0  0  0  0  0  0  0  0  0  0  0  0  # atno 27233 bound_to 18736
  181.9464   19.5099   57.1918 LP  0  0  0  0  0  0  0  0  0  0  0  0  # atno 27234 bound_to 18736
  183.4946   14.9548   59.6022 LP  0  0  0  0  0  0  0  0  0  0  0  0  # atno 27235 bound_to 18588
  184.2894   16.3365   60.2800 LP  0  0  0  0  0  0  0  0  0  0  0  0  # atno 27236 bound_to 18588
  183.5159   17.1691   59.3548 LP  0  0  0  0  0  0  0  0  0  0  0  0  # atno 27237 bound_to 18805
  183.8299   23.7950   55.7272 LP  0  0  0  0  0  0  0  0  0  0  0  0  # atno 27238 bound_to 18907
  182.3893   23.0849   55.0787 LP  0  0  0  0  0  0  0  0  0  0  0  0  # atno 27239 bound_to 18907
  179.7061   23.2035   55.2416 LP  0  0  0  0  0  0  0  0  0  0  0  0  # atno 27240 bound_to 19000
  179.3366   21.8352   54.2460 LP  0  0  0  0  0  0  0  0  0  0  0  0  # atno 27241 bound_to 19000
  180.4629   20.9998   56.0852 LP  0  0  0  0  0  0  0  0  0  0  0  0  # atno 27242 bound_to 19049
  183.0461   11.5217   44.2587 LP  0  0  0  0  0  0  0  0  0  0  0  0  # atno 27243 bound_to 17173
  183.3471   10.0731   43.3582 LP  0  0  0  0  0  0  0  0  0  0  0  0  # atno 27244 bound_to 17173
  187.6414    7.8953   53.4017 LP  0  0  0  0  0  0  0  0  0  0  0  0  # atno 27245 bound_to 18350
  187.6813    8.6133   54.9775 LP  0  0  0  0  0  0  0  0  0  0  0  0  # atno 27246 bound_to 18350
  184.1959    8.0183   55.1270 LP  0  0  0  0  0  0  0  0  0  0  0  0  # atno 27247 bound_to 18441
  184.7823   13.5709   42.5023 LP  0  0  0  0  0  0  0  0  0  0  0  0  # atno 27248 bound_to 11406
  185.4074   15.1504   42.8406 LP  0  0  0  0  0  0  0  0  0  0  0  0  # atno 27249 bound_to 11406
  186.4333    8.4858   44.4799 LP  0  0  0  0  0  0  0  0  0  0  0  0  # atno 27250 bound_to 18195
  186.6400    8.2713   46.1862 LP  0  0  0  0  0  0  0  0  0  0  0  0  # atno 27251 bound_to 18195
  186.9521    9.5602   43.2606 LP  0  0  0  0  0  0  0  0  0  0  0  0  # atno 27254 bound_to 17215
  186.6337    9.8887   41.5901 LP  0  0  0  0  0  0  0  0  0  0  0  0  # atno 27255 bound_to 17215
  185.4358   13.0258   42.1503 LP  0  0  0  0  0  0  0  0  0  0  0  0  # atno 27256 bound_to 17275
  186.5261    5.0219   45.4359 LP  0  0  0  0  0  0  0  0  0  0  0  0  # atno 27257 bound_to 18267
  187.7434    6.0869   49.0159 LP  0  0  0  0  0  0  0  0  0  0  0  0  # atno 27258 bound_to 18309
  186.6757    6.6443   52.1109 LP  0  0  0  0  0  0  0  0  0  0  0  0  # atno 27259 bound_to 18347
  184.2962    4.9348   52.2947 LP  0  0  0  0  0  0  0  0  0  0  0  0  # atno 27260 bound_to 18312
  184.7840    4.4316   50.7108 LP  0  0  0  0  0  0  0  0  0  0  0  0  # atno 27261 bound_to 18312
  185.3383    8.5690   58.1430 LP  0  0  0  0  0  0  0  0  0  0  0  0  # atno 27262 bound_to 18444
  187.0660    8.4575   58.1926 LP  0  0  0  0  0  0  0  0  0  0  0  0  # atno 27263 bound_to 18444
  195.2669    9.2621   55.2075 LP  0  0  0  0  0  0  0  0  0  0  0  0  # atno 27264 bound_to 7509
  187.9505    3.8660   47.4062 LP  0  0  0  0  0  0  0  0  0  0  0  0  # atno 27265 bound_to 18270
  187.0585    3.3093   48.7826 LP  0  0  0  0  0  0  0  0  0  0  0  0  # atno 27266 bound_to 18270
  195.0149   11.6361   53.6953 LP  0  0  0  0  0  0  0  0  0  0  0  0  # atno 27267 bound_to 7448
  186.7889   11.7476   60.6241 LP  0  0  0  0  0  0  0  0  0  0  0  0  # atno 27268 bound_to 18585
  188.5868    2.3991   51.1758 LP  0  0  0  0  0  0  0  0  0  0  0  0  # atno 27269 bound_to 10088
  190.1967    2.5491   50.9468 LP  0  0  0  0  0  0  0  0  0  0  0  0  # atno 27270 bound_to 10088
  183.5674    4.3996   46.7623 LP  0  0  0  0  0  0  0  0  0  0  0  0  # atno 27271 bound_to 18272
  184.7460    3.8870   47.7697 LP  0  0  0  0  0  0  0  0  0  0  0  0  # atno 27272 bound_to 18272
  178.3515   11.2047   54.8147 LP  0  0  0  0  0  0  0  0  0  0  0  0  # atno 27273 bound_to 16936
  179.3056   10.7485   53.4430 LP  0  0  0  0  0  0  0  0  0  0  0  0  # atno 27274 bound_to 16936

> <Gold.Score>
     Fitness  S(hb_ext) S(vdw_ext)  S(hb_int)    S(int)      intcor
     38.91       5.55      24.91       0.00      -0.89      -0.76

> <Gold.Goldscore.Fitness>
38.9094

> <Gold.Goldscore.Internal.Vdw>
-0.7781

> <Gold.Goldscore.Internal.Torsion>
-0.8678

> <Gold.Goldscore.External.Vdw>
24.9068

> <Gold.Goldscore.Internal.HBond>
0.0000

> <Gold.Goldscore.External.HBond>
5.5499

> <Gold.Goldscore.Internal.Correction>
-0.7585

> <Gold.Goldscore.Hbonds>
donor molecule, donor type, donor heavy atom, donor atom, acceptor molecule, acceptor atom, score
      P1  H 17170 17185       L1     9  0.14
      P1  M 26842 27275       L1    11  0.53

> <Gold.Goldscore.Internal.Vdw.Weighted>
-0.7781

> <Gold.Goldscore.Internal.Torsion.Weighted>
-0.8678

> <Gold.Goldscore.External.Vdw.Weighted>
34.2468

> <Gold.Goldscore.Internal.HBond.Weighted>
0.0000

> <Gold.Goldscore.External.HBond.Weighted>
5.5499

> <Gold.Goldscore.Internal.Correction.Weighted>
-0.7585

> <Gold.Rescore>
     Score     S(PLP)   S(hbond)     S(cho)   S(metal)  DE(clash)   DE(tors)     intcor
     30.02     -26.47       0.14       0.00       1.00       1.70       0.58       ----

> <Gold.PLP.Fitness>
30.0226

> <Gold.PLP.PLP>
-26.4706

> <Gold.PLP.part.hbond>
-2.5190

> <Gold.PLP.part.metal>
-1.0000

> <Gold.PLP.part.buried>
28.6783

> <Gold.PLP.part.nonpolar>
-55.1354

> <Gold.PLP.part.repulsive>
2.1430

> <Gold.PLP.ligand.clash>
1.7001

> <Gold.PLP.ligand.torsion>
0.5798

> <Gold.PLP.Chemscore.Hbond>
0.1373

> <Gold.PLP.Chemscore.CHOScore>
0.0000

> <Gold.PLP.Chemscore.Metal>
1.0000

> <Gold.Chemscore.Hbonds>
donor molecule, donor type, donor heavy atom, donor atom, acceptor molecule, acceptor atom, score
      P1  M 26842 26842       L1    11  1.00

> <Gold.PLP.Chemscore.Internal.Correction>
   9.000000E+99

#       Name:                CT1002167954
#       Creating user name   hitesit
#       Creation time:       Sun Apr 16 22:56:29 2023


#       File generated by GOLD software.
#

@<TRIPOS>MOLECULE
CT1002167954|ligand_prepared|mol2|1|dock5
    29    30     1
SMALL
NO_CHARGES


@<TRIPOS>ATOM
      1 C1         188.5034  11.5133  50.3577 C.3            1 RES1               0.0000
      2 C2         187.5604  12.7024  50.0830 C.ar           1 RES1               0.0000
      3 C3         189.3688  11.9187  51.5472 C.2            1 RES1               0.0000
      4 C4         187.6060  10.3095  50.6228 C.2            1 RES1               0.0000
      5 C5         189.4318  11.1649  49.1710 C.3            1 RES1               0.0000
      6 C6         186.4586  12.9365  50.9003 C.ar           1 RES1               0.0000
      7 C7         187.7803  13.5738  49.0195 C.ar           1 RES1               0.0000
      8 N8         189.1024  11.3348  52.7506 N.am           1 RES1               0.0000
      9 O9         190.2457  12.7671  51.4398 O.2            1 RES1               0.0000
     10 N10        187.6233   9.7598  51.8780 N.am           1 RES1               0.0000
     11 O11        186.8717   9.8424  49.7609 O.2            1 RES1               0.0000
     12 C12        190.2622   9.9101  49.3900 C.3            1 RES1               0.0000
     13 C13        185.6091  14.0048  50.6649 C.ar           1 RES1               0.0000
     14 C14        186.9294  14.6414  48.7858 C.ar           1 RES1               0.0000
     15 C15        188.3079  10.2369  52.9624 C.2            1 RES1               0.0000
     16 C16        185.8441  14.8582  49.6079 C.ar           1 RES1               0.0000
     17 O17        188.2302   9.7194  54.0730 O.2            1 RES1               0.0000
     18 H18        188.8191  11.0303  48.2711 H              1 RES1               0.0000
     19 H19        190.1087  12.0095  48.9925 H              1 RES1               0.0000
     20 H20        186.2563  12.2742  51.7354 H              1 RES1               0.0000
     21 H21        188.6273  13.4220  48.3590 H              1 RES1               0.0000
     22 H22        189.5338  11.7532  53.5686 H              1 RES1               0.0000
     23 H23        187.0752   8.9168  52.0166 H              1 RES1               0.0000
     24 H24        190.8954   9.7113  48.5279 H              1 RES1               0.0000
     25 H25        190.9025  10.0187  50.2629 H              1 RES1               0.0000
     26 H26        189.6206   9.0453  49.5458 H              1 RES1               0.0000
     27 H27        184.7556  14.1703  51.3140 H              1 RES1               0.0000
     28 H28        187.1179  15.3101  47.9523 H              1 RES1               0.0000
     29 H29        185.1788  15.6952  49.4239 H              1 RES1               0.0000
@<TRIPOS>BOND
    1    1    2 1     
    2    1    3 1     
    3    1    4 1     
    4    1    5 1     
    5    2    6 ar    
    6    2    7 ar    
    7    3    8 1     
    8    3    9 2     
    9    4   10 1     
   10    4   11 2     
   11    5   12 1     
   12    5   18 1     
   13    5   19 1     
   14    6   13 ar    
   15    6   20 1     
   16    7   14 ar    
   17    7   21 1     
   18    8   15 1     
   19    8   22 1     
   20   10   15 1     
   21   10   23 1     
   22   12   24 1     
   23   12   25 1     
   24   12   26 1     
   25   13   16 ar    
   26   13   27 1     
   27   14   16 ar    
   28   14   28 1     
   29   15   17 2     
   30   16   29 1     
@<TRIPOS>SUBSTRUCTURE
      1 RES1           1
@<TRIPOS>SET
DONOR_HYDROGENS      STATIC     ATOMS    <user>   **** ""
2 22 23
ATOM$RED        STATIC     ATOMS    COLORGROUP SYSTEM
2 22 23
@<TRIPOS>COMMENT
> <Gold.Version>
2022.3.0

> <Gold.Id.Protein>
unknown|4d1n_clean|pdb

> <Gold.Protein.RotatedTorsions>
[ 16977 16944 16943 16941 ] final -152.50 input   59.98 | X-H torsion
[ 18494 18452 18451 18449 ] final    6.25 input   59.98 | X-H torsion
[ 18554 18521 18522 18523 ] final  -78.35 input   91.55 | X-H torsion
[ 18707 18674 18675 18676 ] final  -28.59 input  121.65 | X-H torsion
[ 18768 18733 18734 18735 ] final  -18.74 input   95.18 | X-H torsion
[ 18950 18904 18905 18906 ] final  -19.44 input   99.08 | X-H torsion
[ 19025 18997 18998 18999 ] final   71.13 input  121.68 | X-H torsion
[ 17185 17170 17171 17172 ] final  175.48 input   47.05 | X-H torsion
[ 17233 17212 17213 17214 ] final   42.34 input  118.29 | X-H torsion
[ 18820 18805 18806 18807 ] final -117.47 input  116.09 | X-H torsion
[ 19094 19049 19050 19051 ] final  114.45 input   88.91 | X-H torsion
[ 18486 18441 18442 18443 ] final -165.39 input  100.68 | X-H torsion
[ 17293 17275 17276 17277 ] final  172.15 input   51.25 | X-H torsion
[ 18289 18267 18268 18269 ] final   57.27 input   31.65 | X-H torsion
[ 18324 18309 18310 18311 ] final   13.52 input   53.83 | X-H torsion
[ 18399 18347 18348 18349 ] final  113.16 input   27.99 | X-H torsion
[ 7521 7509 7510 7511 ] final -158.58 input   80.33 | X-H torsion
[ 7486 7448 7449 7450 ] final   33.03 input   99.31 | X-H torsion
[ 18600 18585 18586 18587 ] final   60.93 input  129.83 | X-H torsion
[ 10110 10088 10087 10084 ] final  -38.00 input   59.98 | X-H torsion
[ 18293 18272 18271 18268 ] final  -66.39 input   59.99 | X-H torsion
[ 18650 18622 18620 18617 ] final -110.13 input   59.97 | X-H torsion
[ 18866 18836 18837 18838 ] final   69.49 input   87.55 | X-H torsion
[ 22436 22408 22409 22410 ] final   33.77 input   59.22 | X-H torsion
[ 10146 10126 10127 10128 ] final -117.68 input   20.82 | X-H torsion
[ 18225 18192 18193 18194 ] final   52.00 input   40.98 | X-H torsion
[ 11813 11769 11770 11771 ] final  133.35 input   85.42 | X-H torsion
[ 16969 16933 16934 16935 ] final  -12.49 input   88.91 | X-H torsion
[ 27198 18524 18523 18522 ] final  -98.52 input    0.00 | X-H torsion
[ 27200 18619 18618 18617 ] final  145.06 input    0.00 | X-H torsion
[ 27203 18677 18676 18675 ] final  143.38 input    0.00 | X-H torsion
[ 27223 17119 17118 17117 ] final   68.61 input    0.00 | X-H torsion
[ 27227 11596 11595 11594 ] final  102.57 input   -0.00 | X-H torsion
[ 27231 17044 17043 17042 ] final  -14.27 input    0.00 | X-H torsion
[ 27233 18736 18735 18734 ] final  122.31 input   -0.00 | X-H torsion
[ 27235 18588 18587 18586 ] final   18.01 input    0.00 | X-H torsion
[ 27238 18907 18906 18905 ] final  -13.89 input    0.00 | X-H torsion
[ 27240 19000 18999 18998 ] final   55.79 input    0.00 | X-H torsion
[ 27243 17173 17172 17171 ] final   87.45 input    0.00 | X-H torsion
[ 27245 18350 18349 18348 ] final  -43.96 input    0.00 | X-H torsion
[ 27248 11406 11405 11404 ] final -139.46 input   -0.00 | X-H torsion
[ 27250 18195 18194 18193 ] final   19.23 input    0.00 | X-H torsion
[ 27254 17215 17214 17213 ] final   42.36 input   -0.00 | X-H torsion
[ 27260 18312 18311 18310 ] final  153.73 input   -0.00 | X-H torsion
[ 27262 18444 18443 18442 ] final  -59.21 input    0.00 | X-H torsion
[ 27265 18270 18269 18268 ] final   23.97 input    0.00 | X-H torsion
[ 27273 16936 16935 16934 ] final   49.78 input   -0.00 | X-H torsion

> <Gold.Protein.ActiveResidues>
 TRP414  CYS420  VAL421  GLY422  LEU460  SER462  ALA463  SER482  GLN483  ILE485 
 ARG486  TYR487  ASP500  ASN503  TRP566  TYR567  LEU569  PRO570  ALA571  VAL572 
 SER573  ASN574  PHE589  SER590  GLY591  TRP592  TYR593  MET594  GLY595  THR596 
 GLU597  ILE598  GLY599  VAL600  ARG601  ASP602  TYR603  ARG608  ILE653  VAL654 
 TRP683  PRO687  HEM750  H4B760 

> <Gold.Protein.RotatedAtoms>
  195.0554   10.8226   53.4070 H   0  0  0  0  0  0  0  0  0  0  0  0  # atno 7486 bound_to 7448
  194.8596    9.4226   55.0638 H   0  0  0  0  0  0  0  0  0  0  0  0  # atno 7521 bound_to 7509
  188.7069    2.5805   51.0830 H   0  0  0  0  0  0  0  0  0  0  0  0  # atno 10110 bound_to 10088
  188.1837    0.9676   47.4797 H   0  0  0  0  0  0  0  0  0  0  0  0  # atno 10146 bound_to 10126
  176.0100   16.9293   48.1600 H   0  0  0  0  0  0  0  0  0  0  0  0  # atno 11813 bound_to 11769
  176.7466   12.4537   54.3274 H   0  0  0  0  0  0  0  0  0  0  0  0  # atno 16969 bound_to 16933
  180.0643   15.8011   49.8840 H   0  0  0  0  0  0  0  0  0  0  0  0  # atno 16977 bound_to 16944
  182.9697    9.3877   48.0529 H   0  0  0  0  0  0  0  0  0  0  0  0  # atno 17185 bound_to 17170
  185.7910    9.6947   44.9967 H   0  0  0  0  0  0  0  0  0  0  0  0  # atno 17233 bound_to 17212
  185.0963   11.6002   42.7768 H   0  0  0  0  0  0  0  0  0  0  0  0  # atno 17293 bound_to 17275
  187.0505    8.1927   42.8114 H   0  0  0  0  0  0  0  0  0  0  0  0  # atno 18225 bound_to 18192
  186.8613    4.8162   45.6204 H   0  0  0  0  0  0  0  0  0  0  0  0  # atno 18289 bound_to 18267
  184.7972    4.2925   46.0457 H   0  0  0  0  0  0  0  0  0  0  0  0  # atno 18293 bound_to 18272
  186.2712    6.4918   49.6132 H   0  0  0  0  0  0  0  0  0  0  0  0  # atno 18324 bound_to 18309
  187.0022    5.1819   53.0056 H   0  0  0  0  0  0  0  0  0  0  0  0  # atno 18399 bound_to 18347
  184.7324    8.2181   54.3087 H   0  0  0  0  0  0  0  0  0  0  0  0  # atno 18486 bound_to 18441
  182.6427   14.2380   51.6725 H   0  0  0  0  0  0  0  0  0  0  0  0  # atno 18494 bound_to 18452
  186.4069   10.0830   56.9997 H   0  0  0  0  0  0  0  0  0  0  0  0  # atno 18554 bound_to 18521
  187.1914   12.4097   60.3306 H   0  0  0  0  0  0  0  0  0  0  0  0  # atno 18600 bound_to 18585
  189.6143   15.6040   60.2812 H   0  0  0  0  0  0  0  0  0  0  0  0  # atno 18650 bound_to 18622
  186.0146   16.6954   58.6017 H   0  0  0  0  0  0  0  0  0  0  0  0  # atno 18707 bound_to 18674
  184.4940   17.0956   57.5576 H   0  0  0  0  0  0  0  0  0  0  0  0  # atno 18768 bound_to 18733
  181.8364   17.3455   58.9228 H   0  0  0  0  0  0  0  0  0  0  0  0  # atno 18820 bound_to 18805
  184.6036   19.0412   59.5929 H   0  0  0  0  0  0  0  0  0  0  0  0  # atno 18866 bound_to 18836
  184.2590   21.0533   58.1986 H   0  0  0  0  0  0  0  0  0  0  0  0  # atno 18950 bound_to 18904
  183.2055   20.1967   56.2896 H   0  0  0  0  0  0  0  0  0  0  0  0  # atno 19025 bound_to 18997
  181.2130   20.6439   57.2594 H   0  0  0  0  0  0  0  0  0  0  0  0  # atno 19094 bound_to 19049
  186.1967    8.3730   59.9033 H   0  0  0  0  0  0  0  0  0  0  0  0  # atno 22436 bound_to 22408
  180.3198   14.8664   48.5770 LP  0  0  0  0  0  0  0  0  0  0  0  0  # atno 27193 bound_to 16944
  181.1616   14.6017   49.9510 LP  0  0  0  0  0  0  0  0  0  0  0  0  # atno 27194 bound_to 16944
  181.1341   14.1627   52.2786 LP  0  0  0  0  0  0  0  0  0  0  0  0  # atno 27195 bound_to 18452
  181.6237   13.0758   51.1626 LP  0  0  0  0  0  0  0  0  0  0  0  0  # atno 27196 bound_to 18452
  187.5768   11.0454   56.1250 LP  0  0  0  0  0  0  0  0  0  0  0  0  # atno 27197 bound_to 18521
  186.7368   14.1883   58.0082 LP  0  0  0  0  0  0  0  0  0  0  0  0  # atno 27198 bound_to 18524
  185.5686   13.1238   57.2996 LP  0  0  0  0  0  0  0  0  0  0  0  0  # atno 27199 bound_to 18524
  186.3859   18.7451   57.7557 LP  0  0  0  0  0  0  0  0  0  0  0  0  # atno 27200 bound_to 18619
  185.6147   18.8112   59.3052 LP  0  0  0  0  0  0  0  0  0  0  0  0  # atno 27201 bound_to 18619
  187.0801   15.4508   57.9988 LP  0  0  0  0  0  0  0  0  0  0  0  0  # atno 27202 bound_to 18674
  183.5838   18.2849   55.3378 LP  0  0  0  0  0  0  0  0  0  0  0  0  # atno 27203 bound_to 18677
  185.1396   18.9208   55.7565 LP  0  0  0  0  0  0  0  0  0  0  0  0  # atno 27204 bound_to 18677
  184.0546   15.6370   56.6946 LP  0  0  0  0  0  0  0  0  0  0  0  0  # atno 27209 bound_to 18733
  185.9508   20.6599   58.0220 LP  0  0  0  0  0  0  0  0  0  0  0  0  # atno 27210 bound_to 18904
  183.8456   21.2590   55.0598 LP  0  0  0  0  0  0  0  0  0  0  0  0  # atno 27211 bound_to 18997
  184.4174    7.7814   49.0195 LP  0  0  0  0  0  0  0  0  0  0  0  0  # atno 27223 bound_to 17119
  185.5974    8.9037   48.4295 LP  0  0  0  0  0  0  0  0  0  0  0  0  # atno 27224 bound_to 17119
  183.4772   10.9182   47.3789 LP  0  0  0  0  0  0  0  0  0  0  0  0  # atno 27225 bound_to 17170
  184.9215   10.9064   45.9128 LP  0  0  0  0  0  0  0  0  0  0  0  0  # atno 27226 bound_to 17212
  179.6970   13.6925   46.4260 LP  0  0  0  0  0  0  0  0  0  0  0  0  # atno 27227 bound_to 11596
  179.0221   12.9364   47.8306 LP  0  0  0  0  0  0  0  0  0  0  0  0  # atno 27228 bound_to 11596
  179.7262    9.0930   48.7795 LP  0  0  0  0  0  0  0  0  0  0  0  0  # atno 27231 bound_to 17044
  180.9217   10.3372   48.9303 LP  0  0  0  0  0  0  0  0  0  0  0  0  # atno 27232 bound_to 17044
  180.9178   19.3525   58.5474 LP  0  0  0  0  0  0  0  0  0  0  0  0  # atno 27233 bound_to 18736
  182.1416   19.6329   57.3541 LP  0  0  0  0  0  0  0  0  0  0  0  0  # atno 27234 bound_to 18736
  183.3912   15.0186   60.2667 LP  0  0  0  0  0  0  0  0  0  0  0  0  # atno 27235 bound_to 18588
  184.3928   16.2727   59.6156 LP  0  0  0  0  0  0  0  0  0  0  0  0  # atno 27236 bound_to 18588
  183.5522   17.3042   59.2697 LP  0  0  0  0  0  0  0  0  0  0  0  0  # atno 27237 bound_to 18805
  183.7412   23.7910   55.8803 LP  0  0  0  0  0  0  0  0  0  0  0  0  # atno 27238 bound_to 18907
  182.4781   23.0889   54.9256 LP  0  0  0  0  0  0  0  0  0  0  0  0  # atno 27239 bound_to 18907
  179.2732   21.8119   54.3103 LP  0  0  0  0  0  0  0  0  0  0  0  0  # atno 27240 bound_to 19000
  179.7695   23.2268   55.1773 LP  0  0  0  0  0  0  0  0  0  0  0  0  # atno 27241 bound_to 19000
  180.9701   21.8362   56.0042 LP  0  0  0  0  0  0  0  0  0  0  0  0  # atno 27242 bound_to 19049
  182.9066   11.4209   44.3349 LP  0  0  0  0  0  0  0  0  0  0  0  0  # atno 27243 bound_to 17173
  183.4867   10.1740   43.2819 LP  0  0  0  0  0  0  0  0  0  0  0  0  # atno 27244 bound_to 17173
  187.9594    7.4520   54.3221 LP  0  0  0  0  0  0  0  0  0  0  0  0  # atno 27245 bound_to 18350
  187.3634    9.0566   54.0571 LP  0  0  0  0  0  0  0  0  0  0  0  0  # atno 27246 bound_to 18350
  185.3505    7.5494   55.8003 LP  0  0  0  0  0  0  0  0  0  0  0  0  # atno 27247 bound_to 18441
  184.7509   13.5661   42.6512 LP  0  0  0  0  0  0  0  0  0  0  0  0  # atno 27248 bound_to 11406
  185.4387   15.1552   42.6916 LP  0  0  0  0  0  0  0  0  0  0  0  0  # atno 27249 bound_to 11406
  186.5040    8.5062   44.4771 LP  0  0  0  0  0  0  0  0  0  0  0  0  # atno 27250 bound_to 18195
  186.5692    8.2509   46.1890 LP  0  0  0  0  0  0  0  0  0  0  0  0  # atno 27251 bound_to 18195
  186.4553    9.3589   43.1341 LP  0  0  0  0  0  0  0  0  0  0  0  0  # atno 27254 bound_to 17215
  187.1305   10.0900   41.7166 LP  0  0  0  0  0  0  0  0  0  0  0  0  # atno 27255 bound_to 17215
  186.1092   12.8382   42.0859 LP  0  0  0  0  0  0  0  0  0  0  0  0  # atno 27256 bound_to 17275
  187.3320    6.4896   45.4511 LP  0  0  0  0  0  0  0  0  0  0  0  0  # atno 27257 bound_to 18267
  187.5097    5.5882   48.7667 LP  0  0  0  0  0  0  0  0  0  0  0  0  # atno 27258 bound_to 18309
  186.5574    6.5692   52.0307 LP  0  0  0  0  0  0  0  0  0  0  0  0  # atno 27259 bound_to 18347
  184.3808    4.6912   52.3540 LP  0  0  0  0  0  0  0  0  0  0  0  0  # atno 27260 bound_to 18312
  184.6995    4.6752   50.6516 LP  0  0  0  0  0  0  0  0  0  0  0  0  # atno 27261 bound_to 18312
  185.3735    8.7259   58.3023 LP  0  0  0  0  0  0  0  0  0  0  0  0  # atno 27262 bound_to 18444
  187.0308    8.3006   58.0333 LP  0  0  0  0  0  0  0  0  0  0  0  0  # atno 27263 bound_to 18444
  195.6904    8.8445   53.6439 LP  0  0  0  0  0  0  0  0  0  0  0  0  # atno 27264 bound_to 7509
  187.6005    3.7799   47.2555 LP  0  0  0  0  0  0  0  0  0  0  0  0  # atno 27265 bound_to 18270
  187.4085    3.3954   48.9334 LP  0  0  0  0  0  0  0  0  0  0  0  0  # atno 27266 bound_to 18270
  196.4641   11.8626   53.4006 LP  0  0  0  0  0  0  0  0  0  0  0  0  # atno 27267 bound_to 7448
  186.0329   11.5862   59.3146 LP  0  0  0  0  0  0  0  0  0  0  0  0  # atno 27268 bound_to 18585
  190.3176    2.3574   51.0164 LP  0  0  0  0  0  0  0  0  0  0  0  0  # atno 27269 bound_to 10088
  189.3521    1.1851   51.6168 LP  0  0  0  0  0  0  0  0  0  0  0  0  # atno 27270 bound_to 10088
  183.5571    4.3210   47.0988 LP  0  0  0  0  0  0  0  0  0  0  0  0  # atno 27271 bound_to 18272
  185.0432    3.8608   47.5951 LP  0  0  0  0  0  0  0  0  0  0  0  0  # atno 27272 bound_to 18272
  178.3060   11.4645   54.6177 LP  0  0  0  0  0  0  0  0  0  0  0  0  # atno 27273 bound_to 16936
  179.3511   10.4887   53.6400 LP  0  0  0  0  0  0  0  0  0  0  0  0  # atno 27274 bound_to 16936

> <Gold.Score>
     Fitness  S(hb_ext) S(vdw_ext)  S(hb_int)    S(int)      intcor
     37.53       0.32      27.18       0.00      -0.16      -0.76

> <Gold.Goldscore.Fitness>
37.5340

> <Gold.Goldscore.Internal.Vdw>
-0.4989

> <Gold.Goldscore.Internal.Torsion>
-0.4183

> <Gold.Goldscore.External.Vdw>
27.1827

> <Gold.Goldscore.Internal.HBond>
0.0000

> <Gold.Goldscore.External.HBond>
0.3166

> <Gold.Goldscore.Internal.Correction>
-0.7585

> <Gold.Goldscore.Hbonds>
donor molecule, donor type, donor heavy atom, donor atom, acceptor molecule, acceptor atom, score
      L1  H    10    23       P1 18347  0.05

> <Gold.Goldscore.Internal.Vdw.Weighted>
-0.4989

> <Gold.Goldscore.Internal.Torsion.Weighted>
-0.4183

> <Gold.Goldscore.External.Vdw.Weighted>
37.3762

> <Gold.Goldscore.Internal.HBond.Weighted>
0.0000

> <Gold.Goldscore.External.HBond.Weighted>
0.3166

> <Gold.Goldscore.Internal.Correction.Weighted>
-0.7585

> <Gold.Rescore>
     Score     S(PLP)   S(hbond)     S(cho)   S(metal)  DE(clash)   DE(tors)     intcor
    -48.54      48.54       0.27       0.00       0.00       0.00       0.40       ----

> <Gold.PLP.Fitness>
-48.5403

> <Gold.PLP.PLP>
48.5400

> <Gold.PLP.part.hbond>
-3.4784

> <Gold.PLP.part.metal>
0.0000

> <Gold.PLP.part.buried>
78.7084

> <Gold.PLP.part.nonpolar>
-27.2484

> <Gold.PLP.part.repulsive>
11.0772

> <Gold.PLP.ligand.clash>
0.0000

> <Gold.PLP.ligand.torsion>
0.4003

> <Gold.PLP.Chemscore.Hbond>
0.2668

> <Gold.PLP.Chemscore.CHOScore>
0.0000

> <Gold.PLP.Chemscore.Metal>
0.0000

> <Gold.Chemscore.Hbonds>
donor molecule, donor type, donor heavy atom, donor atom, acceptor molecule, acceptor atom, score
      L1  H    10    23       P1 18350  0.06

> <Gold.PLP.Chemscore.Internal.Correction>
   9.000000E+99

#       Name:                CT1002167954
#       Creating user name   hitesit
#       Creation time:       Sun Apr 16 22:56:26 2023


#       File generated by GOLD software.
#

@<TRIPOS>MOLECULE
CT1002167954|ligand_prepared|mol2|1|dock2
    29    30     1
SMALL
NO_CHARGES


@<TRIPOS>ATOM
      1 C1         188.5021  11.1994  49.9155 C.3            1 RES1               0.0000
      2 C2         187.4691  12.3402  50.0164 C.ar           1 RES1               0.0000
      3 C3         189.1820  11.1151  51.2789 C.2            1 RES1               0.0000
      4 C4         187.7197   9.9482  49.5321 C.2            1 RES1               0.0000
      5 C5         189.5875  11.4327  48.8389 C.3            1 RES1               0.0000
      6 C6         186.4763  12.3130  50.9912 C.ar           1 RES1               0.0000
      7 C7         187.4979  13.4259  49.1451 C.ar           1 RES1               0.0000
      8 N8         188.8517  10.0665  52.0859 N.am           1 RES1               0.0000
      9 O9         189.9662  11.9770  51.6562 O.2            1 RES1               0.0000
     10 N10        187.6602   8.9244  50.4410 N.am           1 RES1               0.0000
     11 O11        187.1403   9.8463  48.4578 O.2            1 RES1               0.0000
     12 C12        190.5997  10.3028  48.7338 C.3            1 RES1               0.0000
     13 C13        185.5476  13.3355  51.0932 C.ar           1 RES1               0.0000
     14 C14        186.5680  14.4472  49.2487 C.ar           1 RES1               0.0000
     15 C15        188.1650   8.9392  51.7127 C.2            1 RES1               0.0000
     16 C16        185.5930  14.4033  50.2225 C.ar           1 RES1               0.0000
     17 O17        188.0240   8.0001  52.4908 O.2            1 RES1               0.0000
     18 H18        189.0979  11.5598  47.8656 H              1 RES1               0.0000
     19 H19        190.1201  12.3634  49.0704 H              1 RES1               0.0000
     20 H20        186.4232  11.4796  51.6837 H              1 RES1               0.0000
     21 H21        188.2553  13.4810  48.3706 H              1 RES1               0.0000
     22 H22        189.1421  10.1261  53.0567 H              1 RES1               0.0000
     23 H23        187.1968   8.0723  50.1418 H              1 RES1               0.0000
     24 H24        191.3383  10.5170  47.9643 H              1 RES1               0.0000
     25 H25        191.1236  10.1652  49.6774 H              1 RES1               0.0000
     26 H26        190.1074   9.3664  48.4798 H              1 RES1               0.0000
     27 H27        184.7814  13.2956  51.8605 H              1 RES1               0.0000
     28 H28        186.6072  15.2854  48.5609 H              1 RES1               0.0000
     29 H29        184.8656  15.2044  50.3029 H              1 RES1               0.0000
@<TRIPOS>BOND
    1    1    2 1     
    2    1    3 1     
    3    1    4 1     
    4    1    5 1     
    5    2    6 ar    
    6    2    7 ar    
    7    3    8 1     
    8    3    9 2     
    9    4   10 1     
   10    4   11 2     
   11    5   12 1     
   12    5   18 1     
   13    5   19 1     
   14    6   13 ar    
   15    6   20 1     
   16    7   14 ar    
   17    7   21 1     
   18    8   15 1     
   19    8   22 1     
   20   10   15 1     
   21   10   23 1     
   22   12   24 1     
   23   12   25 1     
   24   12   26 1     
   25   13   16 ar    
   26   13   27 1     
   27   14   16 ar    
   28   14   28 1     
   29   15   17 2     
   30   16   29 1     
@<TRIPOS>SUBSTRUCTURE
      1 RES1           1
@<TRIPOS>SET
DONOR_HYDROGENS      STATIC     ATOMS    <user>   **** ""
2 22 23
ATOM$RED        STATIC     ATOMS    COLORGROUP SYSTEM
2 22 23
@<TRIPOS>COMMENT
> <Gold.Version>
2022.3.0

> <Gold.Id.Protein>
unknown|4d1n_clean|pdb

> <Gold.Protein.RotatedTorsions>
[ 16977 16944 16943 16941 ] final -157.88 input   59.98 | X-H torsion
[ 18494 18452 18451 18449 ] final  -72.61 input   59.98 | X-H torsion
[ 18554 18521 18522 18523 ] final  100.46 input   91.55 | X-H torsion
[ 18707 18674 18675 18676 ] final  177.82 input  121.65 | X-H torsion
[ 18768 18733 18734 18735 ] final -146.00 input   95.18 | X-H torsion
[ 18950 18904 18905 18906 ] final   15.35 input   99.08 | X-H torsion
[ 19025 18997 18998 18999 ] final  -47.77 input  121.68 | X-H torsion
[ 17185 17170 17171 17172 ] final  -93.68 input   47.05 | X-H torsion
[ 17233 17212 17213 17214 ] final  138.96 input  118.29 | X-H torsion
[ 18820 18805 18806 18807 ] final  -22.68 input  116.09 | X-H torsion
[ 19094 19049 19050 19051 ] final  -19.49 input   88.91 | X-H torsion
[ 18486 18441 18442 18443 ] final  112.21 input  100.68 | X-H torsion
[ 17293 17275 17276 17277 ] final  118.16 input   51.25 | X-H torsion
[ 18289 18267 18268 18269 ] final -116.83 input   31.65 | X-H torsion
[ 18324 18309 18310 18311 ] final -100.79 input   53.83 | X-H torsion
[ 18399 18347 18348 18349 ] final  135.31 input   27.99 | X-H torsion
[ 7521 7509 7510 7511 ] final  -90.01 input   80.33 | X-H torsion
[ 7486 7448 7449 7450 ] final   73.62 input   99.31 | X-H torsion
[ 18600 18585 18586 18587 ] final   24.57 input  129.83 | X-H torsion
[ 10110 10088 10087 10084 ] final   98.13 input   59.98 | X-H torsion
[ 18293 18272 18271 18268 ] final   87.80 input   59.99 | X-H torsion
[ 18650 18622 18620 18617 ] final  -36.20 input   59.97 | X-H torsion
[ 18866 18836 18837 18838 ] final -126.15 input   87.55 | X-H torsion
[ 22436 22408 22409 22410 ] final  119.77 input   59.22 | X-H torsion
[ 10146 10126 10127 10128 ] final   82.23 input   20.82 | X-H torsion
[ 18225 18192 18193 18194 ] final -146.60 input   40.98 | X-H torsion
[ 11813 11769 11770 11771 ] final -136.28 input   85.42 | X-H torsion
[ 16969 16933 16934 16935 ] final  135.99 input   88.91 | X-H torsion
[ 27198 18524 18523 18522 ] final   33.83 input    0.00 | X-H torsion
[ 27200 18619 18618 18617 ] final  -15.23 input    0.00 | X-H torsion
[ 27203 18677 18676 18675 ] final  -52.09 input    0.00 | X-H torsion
[ 27223 17119 17118 17117 ] final  122.11 input    0.00 | X-H torsion
[ 27227 11596 11595 11594 ] final   26.96 input   -0.00 | X-H torsion
[ 27231 17044 17043 17042 ] final -127.17 input    0.00 | X-H torsion
[ 27233 18736 18735 18734 ] final  -18.30 input   -0.00 | X-H torsion
[ 27235 18588 18587 18586 ] final   -5.80 input    0.00 | X-H torsion
[ 27238 18907 18906 18905 ] final -119.04 input    0.00 | X-H torsion
[ 27240 19000 18999 18998 ] final   93.78 input    0.00 | X-H torsion
[ 27243 17173 17172 17171 ] final -137.99 input    0.00 | X-H torsion
[ 27245 18350 18349 18348 ] final  -70.75 input    0.00 | X-H torsion
[ 27248 11406 11405 11404 ] final -111.68 input   -0.00 | X-H torsion
[ 27250 18195 18194 18193 ] final  -71.28 input    0.00 | X-H torsion
[ 27254 17215 17214 17213 ] final -150.07 input   -0.00 | X-H torsion
[ 27260 18312 18311 18310 ] final  142.39 input   -0.00 | X-H torsion
[ 27262 18444 18443 18442 ] final   57.11 input    0.00 | X-H torsion
[ 27265 18270 18269 18268 ] final  -47.44 input    0.00 | X-H torsion
[ 27273 16936 16935 16934 ] final  172.28 input   -0.00 | X-H torsion

> <Gold.Protein.ActiveResidues>
 TRP414  CYS420  VAL421  GLY422  LEU460  SER462  ALA463  SER482  GLN483  ILE485 
 ARG486  TYR487  ASP500  ASN503  TRP566  TYR567  LEU569  PRO570  ALA571  VAL572 
 SER573  ASN574  PHE589  SER590  GLY591  TRP592  TYR593  MET594  GLY595  THR596 
 GLU597  ILE598  GLY599  VAL600  ARG601  ASP602  TYR603  ARG608  ILE653  VAL654 
 TRP683  PRO687  HEM750  H4B760 

> <Gold.Protein.RotatedAtoms>
  194.9161   11.3736   53.6500 H   0  0  0  0  0  0  0  0  0  0  0  0  # atno 7486 bound_to 7448
  195.7728    9.0473   55.0680 H   0  0  0  0  0  0  0  0  0  0  0  0  # atno 7521 bound_to 7509
  189.6142    1.1872   51.5862 H   0  0  0  0  0  0  0  0  0  0  0  0  # atno 10110 bound_to 10088
  186.7740    1.9684   47.3371 H   0  0  0  0  0  0  0  0  0  0  0  0  # atno 10146 bound_to 10126
  175.5594   16.2047   47.2318 H   0  0  0  0  0  0  0  0  0  0  0  0  # atno 11813 bound_to 11769
  176.0291   13.1156   52.9252 H   0  0  0  0  0  0  0  0  0  0  0  0  # atno 16969 bound_to 16933
  180.0210   15.8122   49.8082 H   0  0  0  0  0  0  0  0  0  0  0  0  # atno 16977 bound_to 16944
  184.0360   10.0592   48.0534 H   0  0  0  0  0  0  0  0  0  0  0  0  # atno 17185 bound_to 17170
  185.9913   10.4696   46.0563 H   0  0  0  0  0  0  0  0  0  0  0  0  # atno 17233 bound_to 17212
  184.7474   12.2871   42.5883 H   0  0  0  0  0  0  0  0  0  0  0  0  # atno 17293 bound_to 17275
  186.8332    6.8326   41.7710 H   0  0  0  0  0  0  0  0  0  0  0  0  # atno 18225 bound_to 18192
  187.4154    6.4837   45.4884 H   0  0  0  0  0  0  0  0  0  0  0  0  # atno 18289 bound_to 18267
  184.5406    3.9258   47.8147 H   0  0  0  0  0  0  0  0  0  0  0  0  # atno 18293 bound_to 18272
  186.6122    5.2777   48.8059 H   0  0  0  0  0  0  0  0  0  0  0  0  # atno 18324 bound_to 18309
  186.7447    5.0514   52.8187 H   0  0  0  0  0  0  0  0  0  0  0  0  # atno 18399 bound_to 18347
  184.2002    7.9600   55.3128 H   0  0  0  0  0  0  0  0  0  0  0  0  # atno 18486 bound_to 18441
  181.6894   14.5168   52.3272 H   0  0  0  0  0  0  0  0  0  0  0  0  # atno 18494 bound_to 18452
  187.5860   11.0780   56.1231 H   0  0  0  0  0  0  0  0  0  0  0  0  # atno 18554 bound_to 18521
  187.1748   12.6684   59.8441 H   0  0  0  0  0  0  0  0  0  0  0  0  # atno 18600 bound_to 18585
  188.7474   15.3158   59.6234 H   0  0  0  0  0  0  0  0  0  0  0  0  # atno 18650 bound_to 18622
  187.3319   15.7589   58.0304 H   0  0  0  0  0  0  0  0  0  0  0  0  # atno 18707 bound_to 18674
  184.1939   16.2515   56.2378 H   0  0  0  0  0  0  0  0  0  0  0  0  # atno 18768 bound_to 18733
  182.8952   18.0677   58.6443 H   0  0  0  0  0  0  0  0  0  0  0  0  # atno 18820 bound_to 18805
  183.6654   19.6666   60.9373 H   0  0  0  0  0  0  0  0  0  0  0  0  # atno 18866 bound_to 18836
  184.2874   20.5800   57.9696 H   0  0  0  0  0  0  0  0  0  0  0  0  # atno 18950 bound_to 18904
  183.4946   21.6054   55.7982 H   0  0  0  0  0  0  0  0  0  0  0  0  # atno 19025 bound_to 18997
  181.4629   22.0287   56.4379 H   0  0  0  0  0  0  0  0  0  0  0  0  # atno 19094 bound_to 19049
  186.5923    7.3307   59.4886 H   0  0  0  0  0  0  0  0  0  0  0  0  # atno 22436 bound_to 22408
  180.3802   14.8020   48.5845 LP  0  0  0  0  0  0  0  0  0  0  0  0  # atno 27193 bound_to 16944
  181.1449   14.6549   50.0198 LP  0  0  0  0  0  0  0  0  0  0  0  0  # atno 27194 bound_to 16944
  181.0928   13.2311   51.5272 LP  0  0  0  0  0  0  0  0  0  0  0  0  # atno 27195 bound_to 18452
  182.6247   13.7267   51.2549 LP  0  0  0  0  0  0  0  0  0  0  0  0  # atno 27196 bound_to 18452
  186.4314   10.0787   56.9766 LP  0  0  0  0  0  0  0  0  0  0  0  0  # atno 27197 bound_to 18521
  186.1925   13.1096   56.9833 LP  0  0  0  0  0  0  0  0  0  0  0  0  # atno 27198 bound_to 18524
  186.1128   14.2026   58.3246 LP  0  0  0  0  0  0  0  0  0  0  0  0  # atno 27199 bound_to 18524
  185.8895   18.8920   59.3818 LP  0  0  0  0  0  0  0  0  0  0  0  0  # atno 27200 bound_to 18619
  186.1112   18.6643   57.6792 LP  0  0  0  0  0  0  0  0  0  0  0  0  # atno 27201 bound_to 18619
  185.7853   16.3713   58.5603 LP  0  0  0  0  0  0  0  0  0  0  0  0  # atno 27202 bound_to 18674
  185.0210   19.0055   55.9385 LP  0  0  0  0  0  0  0  0  0  0  0  0  # atno 27203 bound_to 18677
  183.7024   18.2002   55.1557 LP  0  0  0  0  0  0  0  0  0  0  0  0  # atno 27204 bound_to 18677
  184.3447   16.4530   57.9704 LP  0  0  0  0  0  0  0  0  0  0  0  0  # atno 27209 bound_to 18733
  185.9229   21.1247   58.2469 LP  0  0  0  0  0  0  0  0  0  0  0  0  # atno 27210 bound_to 18904
  183.5625   19.8792   55.5411 LP  0  0  0  0  0  0  0  0  0  0  0  0  # atno 27211 bound_to 18997
  184.5530    7.7767   48.2519 LP  0  0  0  0  0  0  0  0  0  0  0  0  # atno 27223 bound_to 17119
  185.4618    8.9084   49.1970 LP  0  0  0  0  0  0  0  0  0  0  0  0  # atno 27224 bound_to 17119
  182.4368   10.2630   47.3784 LP  0  0  0  0  0  0  0  0  0  0  0  0  # atno 27225 bound_to 17170
  184.7275   10.1560   44.8869 LP  0  0  0  0  0  0  0  0  0  0  0  0  # atno 27226 bound_to 17212
  179.6989   12.6600   46.6737 LP  0  0  0  0  0  0  0  0  0  0  0  0  # atno 27227 bound_to 11596
  179.0202   13.9689   47.5828 LP  0  0  0  0  0  0  0  0  0  0  0  0  # atno 27228 bound_to 11596
  180.9941    9.6055   48.3174 LP  0  0  0  0  0  0  0  0  0  0  0  0  # atno 27231 bound_to 17044
  179.6538    9.8246   49.3924 LP  0  0  0  0  0  0  0  0  0  0  0  0  # atno 27232 bound_to 17044
  181.6812   19.3730   57.1065 LP  0  0  0  0  0  0  0  0  0  0  0  0  # atno 27233 bound_to 18736
  181.3781   19.6124   58.7950 LP  0  0  0  0  0  0  0  0  0  0  0  0  # atno 27234 bound_to 18736
  183.4063   14.9289   59.9212 LP  0  0  0  0  0  0  0  0  0  0  0  0  # atno 27235 bound_to 18588
  184.3777   16.3624   59.9611 LP  0  0  0  0  0  0  0  0  0  0  0  0  # atno 27236 bound_to 18588
  182.5304   16.6072   59.5386 LP  0  0  0  0  0  0  0  0  0  0  0  0  # atno 27237 bound_to 18805
  182.4606   23.2948   55.9577 LP  0  0  0  0  0  0  0  0  0  0  0  0  # atno 27238 bound_to 18907
  183.7586   23.5851   54.8482 LP  0  0  0  0  0  0  0  0  0  0  0  0  # atno 27239 bound_to 18907
  178.9711   21.8518   54.7845 LP  0  0  0  0  0  0  0  0  0  0  0  0  # atno 27240 bound_to 19000
  180.0716   23.1869   54.7031 LP  0  0  0  0  0  0  0  0  0  0  0  0  # atno 27241 bound_to 19000
  180.7264   20.4862   56.8051 LP  0  0  0  0  0  0  0  0  0  0  0  0  # atno 27242 bound_to 19049
  183.8376   10.7410   43.2287 LP  0  0  0  0  0  0  0  0  0  0  0  0  # atno 27243 bound_to 17173
  182.5557   10.8539   44.3881 LP  0  0  0  0  0  0  0  0  0  0  0  0  # atno 27244 bound_to 17173
  187.9694    7.6165   54.6879 LP  0  0  0  0  0  0  0  0  0  0  0  0  # atno 27245 bound_to 18350
  187.3533    8.8921   53.6913 LP  0  0  0  0  0  0  0  0  0  0  0  0  # atno 27246 bound_to 18350
  185.8697    7.8012   54.8209 LP  0  0  0  0  0  0  0  0  0  0  0  0  # atno 27247 bound_to 18441
  184.8598   13.6378   42.2564 LP  0  0  0  0  0  0  0  0  0  0  0  0  # atno 27248 bound_to 11406
  185.3298   15.0835   43.0865 LP  0  0  0  0  0  0  0  0  0  0  0  0  # atno 27249 bound_to 11406
  187.3704    8.6124   45.3441 LP  0  0  0  0  0  0  0  0  0  0  0  0  # atno 27250 bound_to 18195
  185.7028    8.1447   45.3220 LP  0  0  0  0  0  0  0  0  0  0  0  0  # atno 27251 bound_to 18195
  186.9696   10.0360   41.6368 LP  0  0  0  0  0  0  0  0  0  0  0  0  # atno 27254 bound_to 17215
  186.6162    9.4129   43.2138 LP  0  0  0  0  0  0  0  0  0  0  0  0  # atno 27255 bound_to 17215
  186.4560   12.1554   42.2733 LP  0  0  0  0  0  0  0  0  0  0  0  0  # atno 27256 bound_to 17275
  186.7890    4.8559   45.5804 LP  0  0  0  0  0  0  0  0  0  0  0  0  # atno 27257 bound_to 18267
  187.1805    6.7598   49.5458 LP  0  0  0  0  0  0  0  0  0  0  0  0  # atno 27258 bound_to 18309
  186.8042    6.6942   52.2097 LP  0  0  0  0  0  0  0  0  0  0  0  0  # atno 27259 bound_to 18347
  184.4438    4.5322   52.3501 LP  0  0  0  0  0  0  0  0  0  0  0  0  # atno 27260 bound_to 18312
  184.6364    4.8342   50.6555 LP  0  0  0  0  0  0  0  0  0  0  0  0  # atno 27261 bound_to 18312
  186.3499    7.9013   57.5731 LP  0  0  0  0  0  0  0  0  0  0  0  0  # atno 27262 bound_to 18444
  186.0544    9.1252   58.7625 LP  0  0  0  0  0  0  0  0  0  0  0  0  # atno 27263 bound_to 18444
  194.7867    9.2158   53.6398 LP  0  0  0  0  0  0  0  0  0  0  0  0  # atno 27264 bound_to 7509
  186.7592    3.4212   47.6860 LP  0  0  0  0  0  0  0  0  0  0  0  0  # atno 27265 bound_to 18270
  188.2498    3.7541   48.5029 LP  0  0  0  0  0  0  0  0  0  0  0  0  # atno 27266 bound_to 18270
  196.5985   11.3308   53.1661 LP  0  0  0  0  0  0  0  0  0  0  0  0  # atno 27267 bound_to 7448
  186.0490   11.3334   59.7901 LP  0  0  0  0  0  0  0  0  0  0  0  0  # atno 27268 bound_to 18585
  188.5768    2.3757   51.1868 LP  0  0  0  0  0  0  0  0  0  0  0  0  # atno 27269 bound_to 10088
  190.1794    2.5696   50.9398 LP  0  0  0  0  0  0  0  0  0  0  0  0  # atno 27270 bound_to 10088
  185.2237    4.1188   46.3506 LP  0  0  0  0  0  0  0  0  0  0  0  0  # atno 27271 bound_to 18272
  183.6350    4.4324   46.5614 LP  0  0  0  0  0  0  0  0  0  0  0  0  # atno 27272 bound_to 18272
  179.1267   10.2070   54.3913 LP  0  0  0  0  0  0  0  0  0  0  0  0  # atno 27273 bound_to 16936
  178.5304   11.7462   53.8665 LP  0  0  0  0  0  0  0  0  0  0  0  0  # atno 27274 bound_to 16936

> <Gold.Score>
     Fitness  S(hb_ext) S(vdw_ext)  S(hb_int)    S(int)      intcor
     36.78       3.65      24.23       0.00      -0.18      -0.77

> <Gold.Goldscore.Fitness>
36.7807

> <Gold.Goldscore.Internal.Vdw>
-0.5819

> <Gold.Goldscore.Internal.Torsion>
-0.3670

> <Gold.Goldscore.External.Vdw>
24.2291

> <Gold.Goldscore.Internal.HBond>
0.0000

> <Gold.Goldscore.External.HBond>
3.6458

> <Gold.Goldscore.Internal.Correction>
-0.7686

> <Gold.Goldscore.Hbonds>
donor molecule, donor type, donor heavy atom, donor atom, acceptor molecule, acceptor atom, score
      P1  H 17212 17233       L1    11  0.58
      L1  H    10    23       P1 18309  0.42

> <Gold.Goldscore.Internal.Vdw.Weighted>
-0.5819

> <Gold.Goldscore.Internal.Torsion.Weighted>
-0.3670

> <Gold.Goldscore.External.Vdw.Weighted>
33.3151

> <Gold.Goldscore.Internal.HBond.Weighted>
0.0000

> <Gold.Goldscore.External.HBond.Weighted>
3.6458

> <Gold.Goldscore.Internal.Correction.Weighted>
-0.7686

> <Gold.Rescore>
     Score     S(PLP)   S(hbond)     S(cho)   S(metal)  DE(clash)   DE(tors)     intcor
    -12.51      13.48       0.36       0.00       0.00       0.00       0.05       ----

> <Gold.PLP.Fitness>
-12.5068

> <Gold.PLP.PLP>
13.4829

> <Gold.PLP.part.hbond>
-1.2121

> <Gold.PLP.part.metal>
0.0000

> <Gold.PLP.part.buried>
41.8168

> <Gold.PLP.part.nonpolar>
-28.0885

> <Gold.PLP.part.repulsive>
10.3059

> <Gold.PLP.ligand.clash>
0.0000

> <Gold.PLP.ligand.torsion>
0.0482

> <Gold.PLP.Chemscore.Hbond>
0.3575

> <Gold.PLP.Chemscore.CHOScore>
0.0000

> <Gold.PLP.Chemscore.Metal>
0.0000

> <Gold.Chemscore.Hbonds>
donor molecule, donor type, donor heavy atom, donor atom, acceptor molecule, acceptor atom, score
      L1  H    10    23       P1 18309  0.34

> <Gold.PLP.Chemscore.Internal.Correction>
   9.000000E+99

#       Name:                CT1002167954
#       Creating user name   hitesit
#       Creation time:       Sun Apr 16 22:56:29 2023


#       File generated by GOLD software.
#

@<TRIPOS>MOLECULE
CT1002167954|ligand_prepared|mol2|1|dock6
    29    30     1
SMALL
NO_CHARGES


@<TRIPOS>ATOM
      1 C1         187.2589  16.7501  47.5521 C.3            1 RES1               0.0000
      2 C2         187.2965  15.5602  48.5327 C.ar           1 RES1               0.0000
      3 C3         188.7065  17.1918  47.3586 C.2            1 RES1               0.0000
      4 C4         186.5904  16.2353  46.2821 C.2            1 RES1               0.0000
      5 C5         186.4414  17.9579  48.0663 C.3            1 RES1               0.0000
      6 C6         186.2945  15.3941  49.4841 C.ar           1 RES1               0.0000
      7 C7         188.3234  14.6207  48.4964 C.ar           1 RES1               0.0000
      8 N8         189.3078  16.8846  46.1737 N.am           1 RES1               0.0000
      9 O9         189.3236  17.7660  48.2472 O.2            1 RES1               0.0000
     10 N10        187.3451  16.1709  45.1401 N.am           1 RES1               0.0000
     11 O11        185.4217  15.8692  46.2640 O.2            1 RES1               0.0000
     12 C12        186.5898  19.2071  47.2121 C.3            1 RES1               0.0000
     13 C13        186.3167  14.3258  50.3654 C.ar           1 RES1               0.0000
     14 C14        188.3438  13.5533  49.3788 C.ar           1 RES1               0.0000
     15 C15        188.6819  16.4433  45.0356 C.2            1 RES1               0.0000
     16 C16        187.3409  13.4046  50.3131 C.ar           1 RES1               0.0000
     17 O17        189.3036  16.3095  43.9855 O.2            1 RES1               0.0000
     18 H18        185.3813  17.6778  48.1010 H              1 RES1               0.0000
     19 H19        186.7605  18.1902  49.0899 H              1 RES1               0.0000
     20 H20        185.4817  16.1104  49.5419 H              1 RES1               0.0000
     21 H21        189.1235  14.7182  47.7705 H              1 RES1               0.0000
     22 H22        190.3161  16.9929  46.1298 H              1 RES1               0.0000
     23 H23        186.8659  15.8945  44.2891 H              1 RES1               0.0000
     24 H24        185.9961  20.0240  47.6169 H              1 RES1               0.0000
     25 H25        187.6286  19.5286  47.1762 H              1 RES1               0.0000
     26 H26        186.2577  19.0193  46.1932 H              1 RES1               0.0000
     27 H27        185.5258  14.2141  51.0997 H              1 RES1               0.0000
     28 H28        189.1522  12.8309  49.3344 H              1 RES1               0.0000
     29 H29        187.3579  12.5676  51.0033 H              1 RES1               0.0000
@<TRIPOS>BOND
    1    1    2 1     
    2    1    3 1     
    3    1    4 1     
    4    1    5 1     
    5    2    6 ar    
    6    2    7 ar    
    7    3    8 1     
    8    3    9 2     
    9    4   10 1     
   10    4   11 2     
   11    5   12 1     
   12    5   18 1     
   13    5   19 1     
   14    6   13 ar    
   15    6   20 1     
   16    7   14 ar    
   17    7   21 1     
   18    8   15 1     
   19    8   22 1     
   20   10   15 1     
   21   10   23 1     
   22   12   24 1     
   23   12   25 1     
   24   12   26 1     
   25   13   16 ar    
   26   13   27 1     
   27   14   16 ar    
   28   14   28 1     
   29   15   17 2     
   30   16   29 1     
@<TRIPOS>SUBSTRUCTURE
      1 RES1           1
@<TRIPOS>SET
DONOR_HYDROGENS      STATIC     ATOMS    <user>   **** ""
2 22 23
ATOM$RED        STATIC     ATOMS    COLORGROUP SYSTEM
2 22 23
@<TRIPOS>COMMENT
> <Gold.Version>
2022.3.0

> <Gold.Id.Protein>
unknown|4d1n_clean|pdb

> <Gold.Protein.RotatedTorsions>
[ 16977 16944 16943 16941 ] final -119.34 input   59.98 | X-H torsion
[ 18494 18452 18451 18449 ] final   15.40 input   59.98 | X-H torsion
[ 18554 18521 18522 18523 ] final   -9.88 input   91.55 | X-H torsion
[ 18707 18674 18675 18676 ] final   19.00 input  121.65 | X-H torsion
[ 18768 18733 18734 18735 ] final  173.24 input   95.18 | X-H torsion
[ 18950 18904 18905 18906 ] final -162.13 input   99.08 | X-H torsion
[ 19025 18997 18998 18999 ] final  -38.43 input  121.68 | X-H torsion
[ 17185 17170 17171 17172 ] final   69.01 input   47.05 | X-H torsion
[ 17233 17212 17213 17214 ] final  152.24 input  118.29 | X-H torsion
[ 18820 18805 18806 18807 ] final   -6.19 input  116.09 | X-H torsion
[ 19094 19049 19050 19051 ] final   92.21 input   88.91 | X-H torsion
[ 18486 18441 18442 18443 ] final   17.71 input  100.68 | X-H torsion
[ 17293 17275 17276 17277 ] final   44.47 input   51.25 | X-H torsion
[ 18289 18267 18268 18269 ] final  129.96 input   31.65 | X-H torsion
[ 18324 18309 18310 18311 ] final  -86.72 input   53.83 | X-H torsion
[ 18399 18347 18348 18349 ] final -140.74 input   27.99 | X-H torsion
[ 7521 7509 7510 7511 ] final   85.80 input   80.33 | X-H torsion
[ 7486 7448 7449 7450 ] final  -28.66 input   99.31 | X-H torsion
[ 18600 18585 18586 18587 ] final  -72.33 input  129.83 | X-H torsion
[ 10110 10088 10087 10084 ] final   26.77 input   59.98 | X-H torsion
[ 18293 18272 18271 18268 ] final  -32.97 input   59.99 | X-H torsion
[ 18650 18622 18620 18617 ] final -150.67 input   59.97 | X-H torsion
[ 18866 18836 18837 18838 ] final   75.59 input   87.55 | X-H torsion
[ 22436 22408 22409 22410 ] final  135.96 input   59.22 | X-H torsion
[ 10146 10126 10127 10128 ] final  145.20 input   20.82 | X-H torsion
[ 18225 18192 18193 18194 ] final -116.82 input   40.98 | X-H torsion
[ 11813 11769 11770 11771 ] final   80.31 input   85.42 | X-H torsion
[ 16969 16933 16934 16935 ] final   36.23 input   88.91 | X-H torsion
[ 27198 18524 18523 18522 ] final  -21.47 input    0.00 | X-H torsion
[ 27200 18619 18618 18617 ] final -133.45 input    0.00 | X-H torsion
[ 27203 18677 18676 18675 ] final -104.64 input    0.00 | X-H torsion
[ 27223 17119 17118 17117 ] final  152.73 input    0.00 | X-H torsion
[ 27227 11596 11595 11594 ] final  -30.87 input   -0.00 | X-H torsion
[ 27231 17044 17043 17042 ] final   13.10 input    0.00 | X-H torsion
[ 27233 18736 18735 18734 ] final  170.74 input   -0.00 | X-H torsion
[ 27235 18588 18587 18586 ] final  159.58 input    0.00 | X-H torsion
[ 27238 18907 18906 18905 ] final -122.98 input    0.00 | X-H torsion
[ 27240 19000 18999 18998 ] final    6.38 input    0.00 | X-H torsion
[ 27243 17173 17172 17171 ] final  168.03 input    0.00 | X-H torsion
[ 27245 18350 18349 18348 ] final   91.87 input    0.00 | X-H torsion
[ 27248 11406 11405 11404 ] final  -19.56 input   -0.00 | X-H torsion
[ 27250 18195 18194 18193 ] final  -73.65 input    0.00 | X-H torsion
[ 27254 17215 17214 17213 ] final   58.49 input   -0.00 | X-H torsion
[ 27260 18312 18311 18310 ] final -159.25 input   -0.00 | X-H torsion
[ 27262 18444 18443 18442 ] final   61.56 input    0.00 | X-H torsion
[ 27265 18270 18269 18268 ] final -103.96 input    0.00 | X-H torsion
[ 27273 16936 16935 16934 ] final   41.94 input   -0.00 | X-H torsion

> <Gold.Protein.ActiveResidues>
 TRP414  CYS420  VAL421  GLY422  LEU460  SER462  ALA463  SER482  GLN483  ILE485 
 ARG486  TYR487  ASP500  ASN503  TRP566  TYR567  LEU569  PRO570  ALA571  VAL572 
 SER573  ASN574  PHE589  SER590  GLY591  TRP592  TYR593  MET594  GLY595  THR596 
 GLU597  ILE598  GLY599  VAL600  ARG601  ASP602  TYR603  ARG608  ILE653  VAL654 
 TRP683  PRO687  HEM750  H4B760 

> <Gold.Protein.RotatedAtoms>
  195.8566   10.5239   53.0852 H   0  0  0  0  0  0  0  0  0  0  0  0  # atno 7486 bound_to 7448
  194.8352    9.2044   53.5967 H   0  0  0  0  0  0  0  0  0  0  0  0  # atno 7521 bound_to 7509
  188.6365    1.6632   51.4826 H   0  0  0  0  0  0  0  0  0  0  0  0  # atno 10110 bound_to 10088
  186.8801    1.1051   47.6367 H   0  0  0  0  0  0  0  0  0  0  0  0  # atno 10146 bound_to 10126
  176.3617   17.5617   47.8339 H   0  0  0  0  0  0  0  0  0  0  0  0  # atno 11813 bound_to 11769
  177.0560   12.7613   53.7394 H   0  0  0  0  0  0  0  0  0  0  0  0  # atno 16969 bound_to 16933
  180.4012   15.6024   50.2477 H   0  0  0  0  0  0  0  0  0  0  0  0  # atno 16977 bound_to 16944
  182.5295   10.4875   47.2750 H   0  0  0  0  0  0  0  0  0  0  0  0  # atno 17185 bound_to 17170
  185.8560   10.6054   46.1306 H   0  0  0  0  0  0  0  0  0  0  0  0  # atno 17233 bound_to 17212
  185.3709   13.0266   42.1851 H   0  0  0  0  0  0  0  0  0  0  0  0  # atno 17293 bound_to 17275
  186.4305    6.8017   41.9681 H   0  0  0  0  0  0  0  0  0  0  0  0  # atno 18225 bound_to 18192
  186.2807    5.5853   45.2141 H   0  0  0  0  0  0  0  0  0  0  0  0  # atno 18289 bound_to 18267
  185.2118    4.1253   46.3456 H   0  0  0  0  0  0  0  0  0  0  0  0  # atno 18293 bound_to 18272
  186.4203    5.3423   48.8872 H   0  0  0  0  0  0  0  0  0  0  0  0  # atno 18324 bound_to 18309
  186.0856    5.6265   52.0015 H   0  0  0  0  0  0  0  0  0  0  0  0  # atno 18399 bound_to 18347
  185.3154    7.5516   55.8397 H   0  0  0  0  0  0  0  0  0  0  0  0  # atno 18486 bound_to 18441
  182.6767   14.1336   51.5711 H   0  0  0  0  0  0  0  0  0  0  0  0  # atno 18494 bound_to 18452
  186.2376   11.0099   56.6699 H   0  0  0  0  0  0  0  0  0  0  0  0  # atno 18554 bound_to 18521
  186.3209   12.1275   58.9912 H   0  0  0  0  0  0  0  0  0  0  0  0  # atno 18600 bound_to 18585
  189.9861   16.1226   60.1648 H   0  0  0  0  0  0  0  0  0  0  0  0  # atno 18650 bound_to 18622
  185.6954   16.0686   58.5012 H   0  0  0  0  0  0  0  0  0  0  0  0  # atno 18707 bound_to 18674
  184.0511   15.7235   56.5298 H   0  0  0  0  0  0  0  0  0  0  0  0  # atno 18768 bound_to 18733
  183.1311   18.0160   58.7277 H   0  0  0  0  0  0  0  0  0  0  0  0  # atno 18820 bound_to 18805
  184.6572   19.0149   59.6657 H   0  0  0  0  0  0  0  0  0  0  0  0  # atno 18866 bound_to 18836
  185.9233   21.1613   58.2670 H   0  0  0  0  0  0  0  0  0  0  0  0  # atno 18950 bound_to 18904
  183.4323   21.5724   55.9234 H   0  0  0  0  0  0  0  0  0  0  0  0  # atno 19025 bound_to 18997
  181.4471   20.8777   57.3444 H   0  0  0  0  0  0  0  0  0  0  0  0  # atno 19094 bound_to 19049
  186.5450    7.1041   59.5706 H   0  0  0  0  0  0  0  0  0  0  0  0  # atno 22436 bound_to 22408
  180.0047   15.2841   48.7021 LP  0  0  0  0  0  0  0  0  0  0  0  0  # atno 27193 bound_to 16944
  181.1374   14.3841   49.4596 LP  0  0  0  0  0  0  0  0  0  0  0  0  # atno 27194 bound_to 16944
  181.2366   14.2655   52.3180 LP  0  0  0  0  0  0  0  0  0  0  0  0  # atno 27195 bound_to 18452
  181.4870   13.0781   51.2253 LP  0  0  0  0  0  0  0  0  0  0  0  0  # atno 27196 bound_to 18452
  187.7414   10.1449   56.4454 LP  0  0  0  0  0  0  0  0  0  0  0  0  # atno 27197 bound_to 18521
  186.8549   13.5275   57.1637 LP  0  0  0  0  0  0  0  0  0  0  0  0  # atno 27198 bound_to 18524
  185.4504   13.7847   58.1441 LP  0  0  0  0  0  0  0  0  0  0  0  0  # atno 27199 bound_to 18524
  185.3179   18.5307   58.0582 LP  0  0  0  0  0  0  0  0  0  0  0  0  # atno 27200 bound_to 18619
  186.6828   19.0256   59.0028 LP  0  0  0  0  0  0  0  0  0  0  0  0  # atno 27201 bound_to 18619
  187.3939   16.0669   58.0976 LP  0  0  0  0  0  0  0  0  0  0  0  0  # atno 27202 bound_to 18674
  184.3387   19.0564   56.2845 LP  0  0  0  0  0  0  0  0  0  0  0  0  # atno 27203 bound_to 18677
  184.3847   18.1493   54.8097 LP  0  0  0  0  0  0  0  0  0  0  0  0  # atno 27204 bound_to 18677
  184.4827   16.9633   57.6881 LP  0  0  0  0  0  0  0  0  0  0  0  0  # atno 27209 bound_to 18733
  184.3165   20.5539   57.9548 LP  0  0  0  0  0  0  0  0  0  0  0  0  # atno 27210 bound_to 18904
  183.6235   19.9114   55.4185 LP  0  0  0  0  0  0  0  0  0  0  0  0  # atno 27211 bound_to 18997
  184.8191    7.9979   47.9526 LP  0  0  0  0  0  0  0  0  0  0  0  0  # atno 27223 bound_to 17119
  185.1957    8.6872   49.4963 LP  0  0  0  0  0  0  0  0  0  0  0  0  # atno 27224 bound_to 17119
  183.9068    9.8450   48.1379 LP  0  0  0  0  0  0  0  0  0  0  0  0  # atno 27225 bound_to 17170
  184.8586   10.0245   44.8149 LP  0  0  0  0  0  0  0  0  0  0  0  0  # atno 27226 bound_to 17212
  179.3190   12.4936   47.4013 LP  0  0  0  0  0  0  0  0  0  0  0  0  # atno 27227 bound_to 11596
  179.4001   14.1353   46.8552 LP  0  0  0  0  0  0  0  0  0  0  0  0  # atno 27228 bound_to 11596
  179.5748    9.3382   49.0708 LP  0  0  0  0  0  0  0  0  0  0  0  0  # atno 27231 bound_to 17044
  181.0732   10.0920   48.6389 LP  0  0  0  0  0  0  0  0  0  0  0  0  # atno 27232 bound_to 17044
  181.5025   19.6685   58.7983 LP  0  0  0  0  0  0  0  0  0  0  0  0  # atno 27233 bound_to 18736
  181.5569   19.3169   57.1032 LP  0  0  0  0  0  0  0  0  0  0  0  0  # atno 27234 bound_to 18736
  184.3266   16.3571   60.1754 LP  0  0  0  0  0  0  0  0  0  0  0  0  # atno 27235 bound_to 18588
  183.4573   14.9342   59.7069 LP  0  0  0  0  0  0  0  0  0  0  0  0  # atno 27236 bound_to 18588
  182.3028   16.6572   59.4581 LP  0  0  0  0  0  0  0  0  0  0  0  0  # atno 27237 bound_to 18805
  182.4293   23.2729   55.9122 LP  0  0  0  0  0  0  0  0  0  0  0  0  # atno 27238 bound_to 18907
  183.7899   23.6070   54.8937 LP  0  0  0  0  0  0  0  0  0  0  0  0  # atno 27239 bound_to 18907
  179.7975   22.1948   53.9899 LP  0  0  0  0  0  0  0  0  0  0  0  0  # atno 27240 bound_to 19000
  179.2452   22.8439   55.4977 LP  0  0  0  0  0  0  0  0  0  0  0  0  # atno 27241 bound_to 19000
  180.7419   21.6084   55.9213 LP  0  0  0  0  0  0  0  0  0  0  0  0  # atno 27242 bound_to 19049
  183.7548   11.4270   43.6035 LP  0  0  0  0  0  0  0  0  0  0  0  0  # atno 27243 bound_to 17173
  182.6385   10.1678   44.0134 LP  0  0  0  0  0  0  0  0  0  0  0  0  # atno 27244 bound_to 17173
  187.3827    8.7087   53.5070 LP  0  0  0  0  0  0  0  0  0  0  0  0  # atno 27245 bound_to 18350
  187.9401    7.7999   54.8722 LP  0  0  0  0  0  0  0  0  0  0  0  0  # atno 27246 bound_to 18350
  184.7818    8.1996   54.3069 LP  0  0  0  0  0  0  0  0  0  0  0  0  # atno 27247 bound_to 18441
  185.3950   14.7198   41.9428 LP  0  0  0  0  0  0  0  0  0  0  0  0  # atno 27248 bound_to 11406
  184.7946   14.0014   43.4000 LP  0  0  0  0  0  0  0  0  0  0  0  0  # atno 27249 bound_to 11406
  187.3707    8.6068   45.3794 LP  0  0  0  0  0  0  0  0  0  0  0  0  # atno 27250 bound_to 18195
  185.7025    8.1503   45.2867 LP  0  0  0  0  0  0  0  0  0  0  0  0  # atno 27251 bound_to 18195
  186.2711    9.3146   42.9819 LP  0  0  0  0  0  0  0  0  0  0  0  0  # atno 27254 bound_to 17215
  187.3147   10.1343   41.8688 LP  0  0  0  0  0  0  0  0  0  0  0  0  # atno 27255 bound_to 17215
  185.8363   11.4203   42.6740 LP  0  0  0  0  0  0  0  0  0  0  0  0  # atno 27256 bound_to 17275
  187.9007    5.7361   45.8492 LP  0  0  0  0  0  0  0  0  0  0  0  0  # atno 27257 bound_to 18267
  187.3657    6.6975   49.4674 LP  0  0  0  0  0  0  0  0  0  0  0  0  # atno 27258 bound_to 18309
  187.4358    6.1431   52.9929 LP  0  0  0  0  0  0  0  0  0  0  0  0  # atno 27259 bound_to 18347
  184.2085    5.2798   52.0357 LP  0  0  0  0  0  0  0  0  0  0  0  0  # atno 27260 bound_to 18312
  184.8717    4.0865   50.9698 LP  0  0  0  0  0  0  0  0  0  0  0  0  # atno 27261 bound_to 18312
  186.4156    7.9082   57.5861 LP  0  0  0  0  0  0  0  0  0  0  0  0  # atno 27262 bound_to 18444
  185.9887    9.1182   58.7495 LP  0  0  0  0  0  0  0  0  0  0  0  0  # atno 27263 bound_to 18444
  195.7145    9.0604   55.0956 LP  0  0  0  0  0  0  0  0  0  0  0  0  # atno 27264 bound_to 7509
  186.7998    3.2799   48.4928 LP  0  0  0  0  0  0  0  0  0  0  0  0  # atno 27265 bound_to 18270
  188.2092    3.8954   47.6961 LP  0  0  0  0  0  0  0  0  0  0  0  0  # atno 27266 bound_to 18270
  195.6909   12.1508   53.7111 LP  0  0  0  0  0  0  0  0  0  0  0  0  # atno 27267 bound_to 7448
  186.8837   11.8620   60.6238 LP  0  0  0  0  0  0  0  0  0  0  0  0  # atno 27268 bound_to 18585
  189.4843    2.9080   50.8662 LP  0  0  0  0  0  0  0  0  0  0  0  0  # atno 27269 bound_to 10088
  190.2562    1.5581   51.3647 LP  0  0  0  0  0  0  0  0  0  0  0  0  # atno 27270 bound_to 10088
  183.6298    4.4309   46.5728 LP  0  0  0  0  0  0  0  0  0  0  0  0  # atno 27271 bound_to 18272
  184.5529    3.9194   47.8190 LP  0  0  0  0  0  0  0  0  0  0  0  0  # atno 27272 bound_to 18272
  178.3081   11.5420   54.5282 LP  0  0  0  0  0  0  0  0  0  0  0  0  # atno 27273 bound_to 16936
  179.3490   10.4112   53.7295 LP  0  0  0  0  0  0  0  0  0  0  0  0  # atno 27274 bound_to 16936

> <Gold.Score>
     Fitness  S(hb_ext) S(vdw_ext)  S(hb_int)    S(int)      intcor
     33.77       5.73      20.94       0.00      -0.75      -0.76

> <Gold.Goldscore.Fitness>
33.7687

> <Gold.Goldscore.Internal.Vdw>
-0.9979

> <Gold.Goldscore.Internal.Torsion>
-0.5146

> <Gold.Goldscore.External.Vdw>
20.9421

> <Gold.Goldscore.Internal.HBond>
0.0000

> <Gold.Goldscore.External.HBond>
5.7273

> <Gold.Goldscore.Internal.Correction>
-0.7585

> <Gold.Goldscore.Hbonds>
donor molecule, donor type, donor heavy atom, donor atom, acceptor molecule, acceptor atom, score
      P1  H 11457 11492       L1    11  0.10
      P1  H 17327 17349       L1    17  1.00
      L1  H     8    22       P1 26826  0.57
      L1  H    10    23       P1 11406  0.04

> <Gold.Goldscore.Internal.Vdw.Weighted>
-0.9979

> <Gold.Goldscore.Internal.Torsion.Weighted>
-0.5146

> <Gold.Goldscore.External.Vdw.Weighted>
28.7954

> <Gold.Goldscore.Internal.HBond.Weighted>
0.0000

> <Gold.Goldscore.External.HBond.Weighted>
5.7273

> <Gold.Goldscore.Internal.Correction.Weighted>
-0.7585

> <Gold.Rescore>
     Score     S(PLP)   S(hbond)     S(cho)   S(metal)  DE(clash)   DE(tors)     intcor
     27.68     -24.59       1.78       0.00       0.00       0.00       1.13       ----

> <Gold.PLP.Fitness>
27.6777

> <Gold.PLP.PLP>
-24.5912

> <Gold.PLP.part.hbond>
-2.9062

> <Gold.PLP.part.metal>
0.0000

> <Gold.PLP.part.buried>
0.8729

> <Gold.PLP.part.nonpolar>
-25.7319

> <Gold.PLP.part.repulsive>
1.1174

> <Gold.PLP.ligand.clash>
0.0000

> <Gold.PLP.ligand.torsion>
1.1329

> <Gold.PLP.Chemscore.Hbond>
1.7841

> <Gold.PLP.Chemscore.CHOScore>
0.0000

> <Gold.PLP.Chemscore.Metal>
0.0000

> <Gold.Chemscore.Hbonds>
donor molecule, donor type, donor heavy atom, donor atom, acceptor molecule, acceptor atom, score
      L1  H     8    22       P1 26826  0.15
      P1  H 11457 11492       L1    11  0.61
      P1  H 17327 17349       L1    17  0.75

> <Gold.PLP.Chemscore.Internal.Correction>
   9.000000E+99

#       Name:                CT1002167954
#       Creating user name   hitesit
#       Creation time:       Sun Apr 16 22:56:28 2023


#       File generated by GOLD software.
#

@<TRIPOS>MOLECULE
CT1002167954|ligand_prepared|mol2|1|dock4
    29    30     1
SMALL
NO_CHARGES


@<TRIPOS>ATOM
      1 C1         185.5407  17.0215  50.9360 C.3            1 RES1               0.0000
      2 C2         186.0222  15.7001  50.3028 C.ar           1 RES1               0.0000
      3 C3         185.1704  17.9421  49.7768 C.2            1 RES1               0.0000
      4 C4         184.3687  16.6587  51.8412 C.2            1 RES1               0.0000
      5 C5         186.6117  17.7267  51.8005 C.3            1 RES1               0.0000
      6 C6         187.2431  15.6364  49.6379 C.ar           1 RES1               0.0000
      7 C7         185.2590  14.5379  50.3776 C.ar           1 RES1               0.0000
      8 N8         183.8448  18.1581  49.5401 N.am           1 RES1               0.0000
      9 O9         186.0275  18.4393  49.0568 O.2            1 RES1               0.0000
     10 N10        183.1280  17.1348  51.5070 N.am           1 RES1               0.0000
     11 O11        184.5057  15.9511  52.8316 O.2            1 RES1               0.0000
     12 C12        186.0633  18.8620  52.6505 C.3            1 RES1               0.0000
     13 C13        187.6864  14.4531  49.0709 C.ar           1 RES1               0.0000
     14 C14        185.7041  13.3557  49.8096 C.ar           1 RES1               0.0000
     15 C15        182.8077  17.8425  50.3806 C.2            1 RES1               0.0000
     16 C16        186.9176  13.3120  49.1567 C.ar           1 RES1               0.0000
     17 O17        181.6587  18.1889  50.1220 O.2            1 RES1               0.0000
     18 H18        187.0774  16.9846  52.4605 H              1 RES1               0.0000
     19 H19        187.3921  18.1250  51.1404 H              1 RES1               0.0000
     20 H20        187.8606  16.5248  49.5582 H              1 RES1               0.0000
     21 H21        184.3006  14.5491  50.8854 H              1 RES1               0.0000
     22 H22        183.6022  18.5946  48.6564 H              1 RES1               0.0000
     23 H23        182.3732  16.9440  52.1584 H              1 RES1               0.0000
     24 H24        186.8557  19.3223  53.2370 H              1 RES1               0.0000
     25 H25        185.6148  19.6307  52.0245 H              1 RES1               0.0000
     26 H26        185.3020  18.4970  53.3368 H              1 RES1               0.0000
     27 H27        188.6415  14.4243  48.5569 H              1 RES1               0.0000
     28 H28        185.0955  12.4602  49.8790 H              1 RES1               0.0000
     29 H29        187.2653  12.3850  48.7127 H              1 RES1               0.0000
@<TRIPOS>BOND
    1    1    2 1     
    2    1    3 1     
    3    1    4 1     
    4    1    5 1     
    5    2    6 ar    
    6    2    7 ar    
    7    3    8 1     
    8    3    9 2     
    9    4   10 1     
   10    4   11 2     
   11    5   12 1     
   12    5   18 1     
   13    5   19 1     
   14    6   13 ar    
   15    6   20 1     
   16    7   14 ar    
   17    7   21 1     
   18    8   15 1     
   19    8   22 1     
   20   10   15 1     
   21   10   23 1     
   22   12   24 1     
   23   12   25 1     
   24   12   26 1     
   25   13   16 ar    
   26   13   27 1     
   27   14   16 ar    
   28   14   28 1     
   29   15   17 2     
   30   16   29 1     
@<TRIPOS>SUBSTRUCTURE
      1 RES1           1
@<TRIPOS>SET
DONOR_HYDROGENS      STATIC     ATOMS    <user>   **** ""
2 22 23
ATOM$RED        STATIC     ATOMS    COLORGROUP SYSTEM
2 22 23
@<TRIPOS>COMMENT
> <Gold.Version>
2022.3.0

> <Gold.Id.Protein>
unknown|4d1n_clean|pdb

> <Gold.Protein.RotatedTorsions>
[ 16977 16944 16943 16941 ] final    5.53 input   59.98 | X-H torsion
[ 18494 18452 18451 18449 ] final  -25.68 input   59.98 | X-H torsion
[ 18554 18521 18522 18523 ] final   76.98 input   91.55 | X-H torsion
[ 18707 18674 18675 18676 ] final  -41.14 input  121.65 | X-H torsion
[ 18768 18733 18734 18735 ] final -124.01 input   95.18 | X-H torsion
[ 18950 18904 18905 18906 ] final  132.58 input   99.08 | X-H torsion
[ 19025 18997 18998 18999 ] final -166.62 input  121.68 | X-H torsion
[ 17185 17170 17171 17172 ] final  -65.83 input   47.05 | X-H torsion
[ 17233 17212 17213 17214 ] final  -60.12 input  118.29 | X-H torsion
[ 18820 18805 18806 18807 ] final -138.39 input  116.09 | X-H torsion
[ 19094 19049 19050 19051 ] final  -62.34 input   88.91 | X-H torsion
[ 18486 18441 18442 18443 ] final   18.01 input  100.68 | X-H torsion
[ 17293 17275 17276 17277 ] final  111.17 input   51.25 | X-H torsion
[ 18289 18267 18268 18269 ] final   97.89 input   31.65 | X-H torsion
[ 18324 18309 18310 18311 ] final   73.54 input   53.83 | X-H torsion
[ 18399 18347 18348 18349 ] final   41.79 input   27.99 | X-H torsion
[ 7521 7509 7510 7511 ] final  -91.05 input   80.33 | X-H torsion
[ 7486 7448 7449 7450 ] final   32.31 input   99.31 | X-H torsion
[ 18600 18585 18586 18587 ] final   49.95 input  129.83 | X-H torsion
[ 10110 10088 10087 10084 ] final -115.88 input   59.98 | X-H torsion
[ 18293 18272 18271 18268 ] final -127.84 input   59.99 | X-H torsion
[ 18650 18622 18620 18617 ] final  -15.38 input   59.97 | X-H torsion
[ 18866 18836 18837 18838 ] final   97.91 input   87.55 | X-H torsion
[ 22436 22408 22409 22410 ] final  -30.41 input   59.22 | X-H torsion
[ 10146 10126 10127 10128 ] final  103.34 input   20.82 | X-H torsion
[ 18225 18192 18193 18194 ] final   -0.16 input   40.98 | X-H torsion
[ 11813 11769 11770 11771 ] final   -5.02 input   85.42 | X-H torsion
[ 16969 16933 16934 16935 ] final -100.62 input   88.91 | X-H torsion
[ 27198 18524 18523 18522 ] final -114.34 input    0.00 | X-H torsion
[ 27200 18619 18618 18617 ] final  -57.77 input    0.00 | X-H torsion
[ 27203 18677 18676 18675 ] final  169.62 input    0.00 | X-H torsion
[ 27223 17119 17118 17117 ] final -104.44 input    0.00 | X-H torsion
[ 27227 11596 11595 11594 ] final  118.70 input   -0.00 | X-H torsion
[ 27231 17044 17043 17042 ] final -166.80 input    0.00 | X-H torsion
[ 27233 18736 18735 18734 ] final -154.17 input   -0.00 | X-H torsion
[ 27235 18588 18587 18586 ] final  142.61 input    0.00 | X-H torsion
[ 27238 18907 18906 18905 ] final -102.04 input    0.00 | X-H torsion
[ 27240 19000 18999 18998 ] final   84.82 input    0.00 | X-H torsion
[ 27243 17173 17172 17171 ] final -110.78 input    0.00 | X-H torsion
[ 27245 18350 18349 18348 ] final  165.69 input    0.00 | X-H torsion
[ 27248 11406 11405 11404 ] final   54.30 input   -0.00 | X-H torsion
[ 27250 18195 18194 18193 ] final  -77.07 input    0.00 | X-H torsion
[ 27254 17215 17214 17213 ] final  -45.83 input   -0.00 | X-H torsion
[ 27260 18312 18311 18310 ] final  -33.42 input   -0.00 | X-H torsion
[ 27262 18444 18443 18442 ] final   83.38 input    0.00 | X-H torsion
[ 27265 18270 18269 18268 ] final  124.83 input    0.00 | X-H torsion
[ 27273 16936 16935 16934 ] final   56.24 input   -0.00 | X-H torsion

> <Gold.Protein.ActiveResidues>
 TRP414  CYS420  VAL421  GLY422  LEU460  SER462  ALA463  SER482  GLN483  ILE485 
 ARG486  TYR487  ASP500  ASN503  TRP566  TYR567  LEU569  PRO570  ALA571  VAL572 
 SER573  ASN574  PHE589  SER590  GLY591  TRP592  TYR593  MET594  GLY595  THR596 
 GLU597  ILE598  GLY599  VAL600  ARG601  ASP602  TYR603  ARG608  ILE653  VAL654 
 TRP683  PRO687  HEM750  H4B760 

> <Gold.Protein.RotatedAtoms>
  195.0614   10.8144   53.4024 H   0  0  0  0  0  0  0  0  0  0  0  0  # atno 7486 bound_to 7448
  195.7611    9.0535   55.0766 H   0  0  0  0  0  0  0  0  0  0  0  0  # atno 7521 bound_to 7509
  189.8407    2.8119   50.8679 H   0  0  0  0  0  0  0  0  0  0  0  0  # atno 10110 bound_to 10088
  186.6955    1.6788   47.4558 H   0  0  0  0  0  0  0  0  0  0  0  0  # atno 10146 bound_to 10126
  176.2924   17.5179   46.6322 H   0  0  0  0  0  0  0  0  0  0  0  0  # atno 11813 bound_to 11769
  175.5153   12.4380   54.2367 H   0  0  0  0  0  0  0  0  0  0  0  0  # atno 16969 bound_to 16933
  181.1092   14.3742   49.3851 H   0  0  0  0  0  0  0  0  0  0  0  0  # atno 16977 bound_to 16944
  184.0574   10.4326   47.8501 H   0  0  0  0  0  0  0  0  0  0  0  0  # atno 17185 bound_to 17170
  184.5812   10.3719   45.0182 H   0  0  0  0  0  0  0  0  0  0  0  0  # atno 17233 bound_to 17212
  184.7545   12.3861   42.5497 H   0  0  0  0  0  0  0  0  0  0  0  0  # atno 17293 bound_to 17275
  186.3505    7.9102   42.9585 H   0  0  0  0  0  0  0  0  0  0  0  0  # atno 18225 bound_to 18192
  186.4088    5.1394   45.3635 H   0  0  0  0  0  0  0  0  0  0  0  0  # atno 18289 bound_to 18267
  183.8765    4.4550   46.2478 H   0  0  0  0  0  0  0  0  0  0  0  0  # atno 18293 bound_to 18272
  187.1121    6.7874   49.6059 H   0  0  0  0  0  0  0  0  0  0  0  0  # atno 18324 bound_to 18309
  187.4422    6.1274   53.0555 H   0  0  0  0  0  0  0  0  0  0  0  0  # atno 18399 bound_to 18347
  185.3111    7.5518   55.8413 H   0  0  0  0  0  0  0  0  0  0  0  0  # atno 18486 bound_to 18441
  182.3670   14.5052   52.0161 H   0  0  0  0  0  0  0  0  0  0  0  0  # atno 18494 bound_to 18452
  187.2987   11.2962   56.1405 H   0  0  0  0  0  0  0  0  0  0  0  0  # atno 18554 bound_to 18521
  187.2120   12.5112   60.1969 H   0  0  0  0  0  0  0  0  0  0  0  0  # atno 18600 bound_to 18585
  188.6173   15.4528   59.3428 H   0  0  0  0  0  0  0  0  0  0  0  0  # atno 18650 bound_to 18622
  186.1729   16.8046   58.5951 H   0  0  0  0  0  0  0  0  0  0  0  0  # atno 18707 bound_to 18674
  184.2899   16.5767   56.2571 H   0  0  0  0  0  0  0  0  0  0  0  0  # atno 18768 bound_to 18733
  181.8526   17.0804   59.1075 H   0  0  0  0  0  0  0  0  0  0  0  0  # atno 18820 bound_to 18805
  184.7913   18.9570   59.9759 H   0  0  0  0  0  0  0  0  0  0  0  0  # atno 18866 bound_to 18836
  185.7644   20.3185   57.8573 H   0  0  0  0  0  0  0  0  0  0  0  0  # atno 18950 bound_to 18904
  183.8828   20.4279   54.9201 H   0  0  0  0  0  0  0  0  0  0  0  0  # atno 19025 bound_to 18997
  180.9977   21.8821   56.0135 H   0  0  0  0  0  0  0  0  0  0  0  0  # atno 19094 bound_to 19049
  185.6554    8.1535   60.6225 H   0  0  0  0  0  0  0  0  0  0  0  0  # atno 22436 bound_to 22408
  180.4584   15.5619   50.2867 LP  0  0  0  0  0  0  0  0  0  0  0  0  # atno 27193 bound_to 16944
  179.9706   15.3433   48.7437 LP  0  0  0  0  0  0  0  0  0  0  0  0  # atno 27194 bound_to 16944
  180.9225   13.7557   52.0365 LP  0  0  0  0  0  0  0  0  0  0  0  0  # atno 27195 bound_to 18452
  182.1129   13.2137   51.0588 LP  0  0  0  0  0  0  0  0  0  0  0  0  # atno 27196 bound_to 18452
  186.7105    9.8668   56.9597 LP  0  0  0  0  0  0  0  0  0  0  0  0  # atno 27197 bound_to 18521
  186.5548   14.2375   58.1542 LP  0  0  0  0  0  0  0  0  0  0  0  0  # atno 27198 bound_to 18524
  185.7506   13.0746   57.1537 LP  0  0  0  0  0  0  0  0  0  0  0  0  # atno 27199 bound_to 18524
  185.3548   18.7135   59.1042 LP  0  0  0  0  0  0  0  0  0  0  0  0  # atno 27200 bound_to 18619
  186.6458   18.8428   57.9568 LP  0  0  0  0  0  0  0  0  0  0  0  0  # atno 27201 bound_to 18619
  186.9245   15.3434   58.0053 LP  0  0  0  0  0  0  0  0  0  0  0  0  # atno 27202 bound_to 18674
  183.5142   18.4772   55.6736 LP  0  0  0  0  0  0  0  0  0  0  0  0  # atno 27203 bound_to 18677
  185.2092   18.7285   55.4207 LP  0  0  0  0  0  0  0  0  0  0  0  0  # atno 27204 bound_to 18677
  184.2519   16.1386   57.9517 LP  0  0  0  0  0  0  0  0  0  0  0  0  # atno 27209 bound_to 18733
  184.4726   21.3815   58.3572 LP  0  0  0  0  0  0  0  0  0  0  0  0  # atno 27210 bound_to 18904
  183.1822   21.0325   56.4013 LP  0  0  0  0  0  0  0  0  0  0  0  0  # atno 27211 bound_to 18997
  185.6086    8.9345   48.5292 LP  0  0  0  0  0  0  0  0  0  0  0  0  # atno 27223 bound_to 17119
  184.4062    7.7506   48.9197 LP  0  0  0  0  0  0  0  0  0  0  0  0  # atno 27224 bound_to 17119
  182.4159    9.8986   47.5767 LP  0  0  0  0  0  0  0  0  0  0  0  0  # atno 27225 bound_to 17170
  186.0928   10.2507   45.8921 LP  0  0  0  0  0  0  0  0  0  0  0  0  # atno 27226 bound_to 17212
  179.6105   13.8922   46.5339 LP  0  0  0  0  0  0  0  0  0  0  0  0  # atno 27227 bound_to 11596
  179.1087   12.7367   47.7226 LP  0  0  0  0  0  0  0  0  0  0  0  0  # atno 27228 bound_to 11596
  181.0734   10.0909   48.6379 LP  0  0  0  0  0  0  0  0  0  0  0  0  # atno 27231 bound_to 17044
  179.5745    9.3392   49.0718 LP  0  0  0  0  0  0  0  0  0  0  0  0  # atno 27232 bound_to 17044
  181.9637   19.8339   58.6180 LP  0  0  0  0  0  0  0  0  0  0  0  0  # atno 27233 bound_to 18736
  181.0956   19.1515   57.2835 LP  0  0  0  0  0  0  0  0  0  0  0  0  # atno 27234 bound_to 18736
  184.2324   16.2934   60.4042 LP  0  0  0  0  0  0  0  0  0  0  0  0  # atno 27235 bound_to 18588
  183.5515   14.9978   59.4780 LP  0  0  0  0  0  0  0  0  0  0  0  0  # atno 27236 bound_to 18588
  183.5365   17.5601   59.0915 LP  0  0  0  0  0  0  0  0  0  0  0  0  # atno 27237 bound_to 18805
  182.6290   23.3960   56.1220 LP  0  0  0  0  0  0  0  0  0  0  0  0  # atno 27238 bound_to 18907
  183.5902   23.4839   54.6839 LP  0  0  0  0  0  0  0  0  0  0  0  0  # atno 27239 bound_to 18907
  179.0248   21.8141   54.6662 LP  0  0  0  0  0  0  0  0  0  0  0  0  # atno 27240 bound_to 19000
  180.0179   23.2246   54.8214 LP  0  0  0  0  0  0  0  0  0  0  0  0  # atno 27241 bound_to 19000
  181.1800   20.6291   57.2189 LP  0  0  0  0  0  0  0  0  0  0  0  0  # atno 27242 bound_to 19049
  183.6642   10.3726   43.2160 LP  0  0  0  0  0  0  0  0  0  0  0  0  # atno 27243 bound_to 17173
  182.7291   11.2223   44.4008 LP  0  0  0  0  0  0  0  0  0  0  0  0  # atno 27244 bound_to 17173
  187.4485    9.0375   54.4917 LP  0  0  0  0  0  0  0  0  0  0  0  0  # atno 27245 bound_to 18350
  187.8742    7.4711   53.8875 LP  0  0  0  0  0  0  0  0  0  0  0  0  # atno 27246 bound_to 18350
  184.7860    8.1993   54.3053 LP  0  0  0  0  0  0  0  0  0  0  0  0  # atno 27247 bound_to 18441
  185.3935   15.1425   42.8938 LP  0  0  0  0  0  0  0  0  0  0  0  0  # atno 27248 bound_to 11406
  184.7961   13.5788   42.4491 LP  0  0  0  0  0  0  0  0  0  0  0  0  # atno 27249 bound_to 11406
  187.3687    8.5981   45.4303 LP  0  0  0  0  0  0  0  0  0  0  0  0  # atno 27250 bound_to 18195
  185.7046    8.1590   45.2358 LP  0  0  0  0  0  0  0  0  0  0  0  0  # atno 27251 bound_to 18195
  187.4925    9.9240   42.8951 LP  0  0  0  0  0  0  0  0  0  0  0  0  # atno 27254 bound_to 17215
  186.0932    9.5249   41.9556 LP  0  0  0  0  0  0  0  0  0  0  0  0  # atno 27255 bound_to 17215
  186.4489   12.0570   42.3117 LP  0  0  0  0  0  0  0  0  0  0  0  0  # atno 27256 bound_to 17275
  187.7753    6.1730   45.7027 LP  0  0  0  0  0  0  0  0  0  0  0  0  # atno 27257 bound_to 18267
  186.6982    5.3030   48.7738 LP  0  0  0  0  0  0  0  0  0  0  0  0  # atno 27258 bound_to 18309
  186.1358    5.6630   51.9829 LP  0  0  0  0  0  0  0  0  0  0  0  0  # atno 27259 bound_to 18347
  184.6603    4.7757   50.6502 LP  0  0  0  0  0  0  0  0  0  0  0  0  # atno 27260 bound_to 18312
  184.4199    4.5906   52.3554 LP  0  0  0  0  0  0  0  0  0  0  0  0  # atno 27261 bound_to 18312
  186.7115    7.9935   57.6983 LP  0  0  0  0  0  0  0  0  0  0  0  0  # atno 27262 bound_to 18444
  185.6928    9.0330   58.6373 LP  0  0  0  0  0  0  0  0  0  0  0  0  # atno 27263 bound_to 18444
  194.7984    9.2097   53.6312 LP  0  0  0  0  0  0  0  0  0  0  0  0  # atno 27264 bound_to 7509
  188.2903    3.7874   48.3986 LP  0  0  0  0  0  0  0  0  0  0  0  0  # atno 27265 bound_to 18270
  186.7186    3.3879   47.7903 LP  0  0  0  0  0  0  0  0  0  0  0  0  # atno 27266 bound_to 18270
  196.4582   11.8704   53.4050 LP  0  0  0  0  0  0  0  0  0  0  0  0  # atno 27267 bound_to 7448
  186.0126   11.4870   59.4452 LP  0  0  0  0  0  0  0  0  0  0  0  0  # atno 27268 bound_to 18585
  190.0049    1.3183   51.4929 LP  0  0  0  0  0  0  0  0  0  0  0  0  # atno 27269 bound_to 10088
  188.5232    1.9912   51.3568 LP  0  0  0  0  0  0  0  0  0  0  0  0  # atno 27270 bound_to 10088
  184.1557    4.0175   47.7900 LP  0  0  0  0  0  0  0  0  0  0  0  0  # atno 27271 bound_to 18272
  185.3719    4.0007   46.7004 LP  0  0  0  0  0  0  0  0  0  0  0  0  # atno 27272 bound_to 18272
  178.3117   11.3937   54.6847 LP  0  0  0  0  0  0  0  0  0  0  0  0  # atno 27273 bound_to 16936
  179.3454   10.5595   53.5731 LP  0  0  0  0  0  0  0  0  0  0  0  0  # atno 27274 bound_to 16936

> <Gold.Score>
     Fitness  S(hb_ext) S(vdw_ext)  S(hb_int)    S(int)      intcor
     32.93       5.42      21.30       0.00      -1.78      -0.77

> <Gold.Goldscore.Fitness>
32.9287

> <Gold.Goldscore.Internal.Vdw>
-1.9649

> <Gold.Goldscore.Internal.Torsion>
-0.5864

> <Gold.Goldscore.External.Vdw>
21.3044

> <Gold.Goldscore.Internal.HBond>
0.0000

> <Gold.Goldscore.External.HBond>
5.4177

> <Gold.Goldscore.Internal.Correction>
-0.7686

> <Gold.Goldscore.Hbonds>
donor molecule, donor type, donor heavy atom, donor atom, acceptor molecule, acceptor atom, score
      P1  H 11682 11730       L1    17  0.53
      P1  H 18452 18494       L1    11  0.03
      P1  H 19334 19372       L1    17  0.24
      L1  H    10    23       P1 19004  0.13

> <Gold.Goldscore.Internal.Vdw.Weighted>
-1.9649

> <Gold.Goldscore.Internal.Torsion.Weighted>
-0.5864

> <Gold.Goldscore.External.Vdw.Weighted>
29.2936

> <Gold.Goldscore.Internal.HBond.Weighted>
0.0000

> <Gold.Goldscore.External.HBond.Weighted>
5.4177

> <Gold.Goldscore.Internal.Correction.Weighted>
-0.7686

> <Gold.Rescore>
     Score     S(PLP)   S(hbond)     S(cho)   S(metal)  DE(clash)   DE(tors)     intcor
     22.93     -17.15       2.47       0.00       0.00       1.13       0.25       ----

> <Gold.PLP.Fitness>
22.9346

> <Gold.PLP.PLP>
-17.1513

> <Gold.PLP.part.hbond>
-3.7197

> <Gold.PLP.part.metal>
0.0000

> <Gold.PLP.part.buried>
12.2212

> <Gold.PLP.part.nonpolar>
-29.0081

> <Gold.PLP.part.repulsive>
2.8285

> <Gold.PLP.ligand.clash>
1.1316

> <Gold.PLP.ligand.torsion>
0.2451

> <Gold.PLP.Chemscore.Hbond>
2.4684

> <Gold.PLP.Chemscore.CHOScore>
0.0000

> <Gold.PLP.Chemscore.Metal>
0.0000

> <Gold.Chemscore.Hbonds>
donor molecule, donor type, donor heavy atom, donor atom, acceptor molecule, acceptor atom, score
      L1  H    10    23       P1 19004  0.67
      P1  H 11682 11730       L1    17  1.00
      P1  H 19334 19372       L1    17  0.82

> <Gold.PLP.Chemscore.Internal.Correction>
   9.000000E+99

#       Name:                CT1002167954
#       Creating user name   hitesit
#       Creation time:       Sun Apr 16 22:56:30 2023


#       File generated by GOLD software.
#

@<TRIPOS>MOLECULE
CT1002167954|ligand_prepared|mol2|1|dock7
    29    30     1
SMALL
NO_CHARGES


@<TRIPOS>ATOM
      1 C1         186.7062  18.6025  49.2855 C.3            1 RES1               0.0000
      2 C2         186.9201  17.0812  49.4224 C.ar           1 RES1               0.0000
      3 C3         185.5841  18.9662  50.2534 C.2            1 RES1               0.0000
      4 C4         188.0457  19.2528  49.6132 C.2            1 RES1               0.0000
      5 C5         186.2930  19.0500  47.8640 C.3            1 RES1               0.0000
      6 C6         187.7000  16.3895  48.5004 C.ar           1 RES1               0.0000
      7 C7         186.3471  16.3577  50.4648 C.ar           1 RES1               0.0000
      8 N8         185.9254  19.6258  51.3973 N.am           1 RES1               0.0000
      9 O9         184.4226  18.6444  50.0352 O.2            1 RES1               0.0000
     10 N10        188.1231  20.0320  50.7378 N.am           1 RES1               0.0000
     11 O11        189.0392  19.0841  48.9169 O.2            1 RES1               0.0000
     12 C12        185.8528  20.5031  47.7823 C.3            1 RES1               0.0000
     13 C13        187.9024  15.0244  48.6180 C.ar           1 RES1               0.0000
     14 C14        186.5506  14.9925  50.5804 C.ar           1 RES1               0.0000
     15 C15        187.1317  20.2230  51.6614 C.2            1 RES1               0.0000
     16 C16        187.3282  14.3251  49.6582 C.ar           1 RES1               0.0000
     17 O17        187.2943  20.8941  52.6764 O.2            1 RES1               0.0000
     18 H18        187.1420  18.8995  47.1857 H              1 RES1               0.0000
     19 H19        185.4704  18.4119  47.5181 H              1 RES1               0.0000
     20 H20        188.1579  16.9226  47.6738 H              1 RES1               0.0000
     21 H21        185.7307  16.8616  51.2014 H              1 RES1               0.0000
     22 H22        185.2183  19.6798  52.1235 H              1 RES1               0.0000
     23 H23        189.0011  20.5144  50.9016 H              1 RES1               0.0000
     24 H24        185.5739  20.7650  46.7638 H              1 RES1               0.0000
     25 H25        184.9940  20.6828  48.4257 H              1 RES1               0.0000
     26 H26        186.6556  21.1675  48.0953 H              1 RES1               0.0000
     27 H27        188.5141  14.5036  47.8888 H              1 RES1               0.0000
     28 H28        186.0963  14.4460  51.4003 H              1 RES1               0.0000
     29 H29        187.4872  13.2558  49.7503 H              1 RES1               0.0000
@<TRIPOS>BOND
    1    1    2 1     
    2    1    3 1     
    3    1    4 1     
    4    1    5 1     
    5    2    6 ar    
    6    2    7 ar    
    7    3    8 1     
    8    3    9 2     
    9    4   10 1     
   10    4   11 2     
   11    5   12 1     
   12    5   18 1     
   13    5   19 1     
   14    6   13 ar    
   15    6   20 1     
   16    7   14 ar    
   17    7   21 1     
   18    8   15 1     
   19    8   22 1     
   20   10   15 1     
   21   10   23 1     
   22   12   24 1     
   23   12   25 1     
   24   12   26 1     
   25   13   16 ar    
   26   13   27 1     
   27   14   16 ar    
   28   14   28 1     
   29   15   17 2     
   30   16   29 1     
@<TRIPOS>SUBSTRUCTURE
      1 RES1           1
@<TRIPOS>SET
DONOR_HYDROGENS      STATIC     ATOMS    <user>   **** ""
2 22 23
ATOM$RED        STATIC     ATOMS    COLORGROUP SYSTEM
2 22 23
@<TRIPOS>COMMENT
> <Gold.Version>
2022.3.0

> <Gold.Id.Protein>
unknown|4d1n_clean|pdb

> <Gold.Protein.RotatedTorsions>
[ 16977 16944 16943 16941 ] final  -20.16 input   59.98 | X-H torsion
[ 18494 18452 18451 18449 ] final -107.31 input   59.98 | X-H torsion
[ 18554 18521 18522 18523 ] final   73.33 input   91.55 | X-H torsion
[ 18707 18674 18675 18676 ] final  142.85 input  121.65 | X-H torsion
[ 18768 18733 18734 18735 ] final  -75.45 input   95.18 | X-H torsion
[ 18950 18904 18905 18906 ] final  106.21 input   99.08 | X-H torsion
[ 19025 18997 18998 18999 ] final  -62.89 input  121.68 | X-H torsion
[ 17185 17170 17171 17172 ] final -170.88 input   47.05 | X-H torsion
[ 17233 17212 17213 17214 ] final  -24.98 input  118.29 | X-H torsion
[ 18820 18805 18806 18807 ] final  110.49 input  116.09 | X-H torsion
[ 19094 19049 19050 19051 ] final  -33.47 input   88.91 | X-H torsion
[ 18486 18441 18442 18443 ] final -140.66 input  100.68 | X-H torsion
[ 17293 17275 17276 17277 ] final  107.55 input   51.25 | X-H torsion
[ 18289 18267 18268 18269 ] final  -73.73 input   31.65 | X-H torsion
[ 18324 18309 18310 18311 ] final -141.58 input   53.83 | X-H torsion
[ 18399 18347 18348 18349 ] final  136.38 input   27.99 | X-H torsion
[ 7521 7509 7510 7511 ] final  -77.10 input   80.33 | X-H torsion
[ 7486 7448 7449 7450 ] final  148.52 input   99.31 | X-H torsion
[ 18600 18585 18586 18587 ] final -100.83 input  129.83 | X-H torsion
[ 10110 10088 10087 10084 ] final -143.31 input   59.98 | X-H torsion
[ 18293 18272 18271 18268 ] final   13.58 input   59.99 | X-H torsion
[ 18650 18622 18620 18617 ] final  -86.18 input   59.97 | X-H torsion
[ 18866 18836 18837 18838 ] final  138.24 input   87.55 | X-H torsion
[ 22436 22408 22409 22410 ] final -106.78 input   59.22 | X-H torsion
[ 10146 10126 10127 10128 ] final   60.34 input   20.82 | X-H torsion
[ 18225 18192 18193 18194 ] final -158.72 input   40.98 | X-H torsion
[ 11813 11769 11770 11771 ] final  138.85 input   85.42 | X-H torsion
[ 16969 16933 16934 16935 ] final  -96.81 input   88.91 | X-H torsion
[ 27198 18524 18523 18522 ] final  -83.05 input    0.00 | X-H torsion
[ 27200 18619 18618 18617 ] final  -63.44 input    0.00 | X-H torsion
[ 27203 18677 18676 18675 ] final   25.26 input    0.00 | X-H torsion
[ 27223 17119 17118 17117 ] final   92.81 input    0.00 | X-H torsion
[ 27227 11596 11595 11594 ] final -132.28 input   -0.00 | X-H torsion
[ 27231 17044 17043 17042 ] final  131.99 input    0.00 | X-H torsion
[ 27233 18736 18735 18734 ] final  -45.30 input   -0.00 | X-H torsion
[ 27235 18588 18587 18586 ] final  -53.62 input    0.00 | X-H torsion
[ 27238 18907 18906 18905 ] final    1.68 input    0.00 | X-H torsion
[ 27240 19000 18999 18998 ] final  100.81 input    0.00 | X-H torsion
[ 27243 17173 17172 17171 ] final   -0.18 input    0.00 | X-H torsion
[ 27245 18350 18349 18348 ] final -163.36 input    0.00 | X-H torsion
[ 27248 11406 11405 11404 ] final   -2.85 input   -0.00 | X-H torsion
[ 27250 18195 18194 18193 ] final  106.55 input    0.00 | X-H torsion
[ 27254 17215 17214 17213 ] final  -17.03 input   -0.00 | X-H torsion
[ 27260 18312 18311 18310 ] final  -82.11 input   -0.00 | X-H torsion
[ 27262 18444 18443 18442 ] final -176.40 input    0.00 | X-H torsion
[ 27265 18270 18269 18268 ] final  -83.61 input    0.00 | X-H torsion
[ 27273 16936 16935 16934 ] final  126.60 input   -0.00 | X-H torsion

> <Gold.Protein.ActiveResidues>
 TRP414  CYS420  VAL421  GLY422  LEU460  SER462  ALA463  SER482  GLN483  ILE485 
 ARG486  TYR487  ASP500  ASN503  TRP566  TYR567  LEU569  PRO570  ALA571  VAL572 
 SER573  ASN574  PHE589  SER590  GLY591  TRP592  TYR593  MET594  GLY595  THR596 
 GLU597  ILE598  GLY599  VAL600  ARG601  ASP602  TYR603  ARG608  ILE653  VAL654 
 TRP683  PRO687  HEM750  H4B760 

> <Gold.Protein.RotatedAtoms>
  195.6516   12.1627   53.7530 H   0  0  0  0  0  0  0  0  0  0  0  0  # atno 7486 bound_to 7448
  195.9045    8.9734   54.9413 H   0  0  0  0  0  0  0  0  0  0  0  0  # atno 7521 bound_to 7509
  190.1889    2.5476   50.9453 H   0  0  0  0  0  0  0  0  0  0  0  0  # atno 10110 bound_to 10088
  186.9672    2.2133   47.2166 H   0  0  0  0  0  0  0  0  0  0  0  0  # atno 10146 bound_to 10126
  175.9675   16.8558   48.1525 H   0  0  0  0  0  0  0  0  0  0  0  0  # atno 11813 bound_to 11769
  175.5566   12.4209   54.2753 H   0  0  0  0  0  0  0  0  0  0  0  0  # atno 16969 bound_to 16933
  181.1715   14.4992   49.7770 H   0  0  0  0  0  0  0  0  0  0  0  0  # atno 16977 bound_to 16944
  183.1666    9.3829   48.1257 H   0  0  0  0  0  0  0  0  0  0  0  0  # atno 17185 bound_to 17170
  184.8820   10.0019   44.7713 H   0  0  0  0  0  0  0  0  0  0  0  0  # atno 17233 bound_to 17212
  184.7632   12.4365   42.5290 H   0  0  0  0  0  0  0  0  0  0  0  0  # atno 17293 bound_to 17275
  187.0019    6.8971   41.7326 H   0  0  0  0  0  0  0  0  0  0  0  0  # atno 18225 bound_to 18192
  187.8454    6.0777   45.7539 H   0  0  0  0  0  0  0  0  0  0  0  0  # atno 18289 bound_to 18267
  185.3633    3.9233   47.0409 H   0  0  0  0  0  0  0  0  0  0  0  0  # atno 18293 bound_to 18272
  187.2225    5.3461   48.7125 H   0  0  0  0  0  0  0  0  0  0  0  0  # atno 18324 bound_to 18309
  186.7320    5.0482   52.8083 H   0  0  0  0  0  0  0  0  0  0  0  0  # atno 18399 bound_to 18347
  185.1008    8.1740   54.2314 H   0  0  0  0  0  0  0  0  0  0  0  0  # atno 18486 bound_to 18441
  181.2093   14.2319   52.3055 H   0  0  0  0  0  0  0  0  0  0  0  0  # atno 18494 bound_to 18452
  187.2483   11.3200   56.1497 H   0  0  0  0  0  0  0  0  0  0  0  0  # atno 18554 bound_to 18521
  186.0969   11.7802   59.1264 H   0  0  0  0  0  0  0  0  0  0  0  0  # atno 18600 bound_to 18585
  189.3127   15.3849   60.1722 H   0  0  0  0  0  0  0  0  0  0  0  0  # atno 18650 bound_to 18622
  186.9846   15.3609   58.0005 H   0  0  0  0  0  0  0  0  0  0  0  0  # atno 18707 bound_to 18674
  184.4676   17.1213   56.7128 H   0  0  0  0  0  0  0  0  0  0  0  0  # atno 18768 bound_to 18733
  183.2050   16.7727   59.5933 H   0  0  0  0  0  0  0  0  0  0  0  0  # atno 18820 bound_to 18805
  184.7498   19.0190   60.5819 H   0  0  0  0  0  0  0  0  0  0  0  0  # atno 18866 bound_to 18836
  185.4333   20.1147   57.7554 H   0  0  0  0  0  0  0  0  0  0  0  0  # atno 18950 bound_to 18904
  183.5967   21.6095   55.5897 H   0  0  0  0  0  0  0  0  0  0  0  0  # atno 19025 bound_to 18997
  181.3221   22.0274   56.2749 H   0  0  0  0  0  0  0  0  0  0  0  0  # atno 19094 bound_to 19049
  185.6342    7.0829   60.7487 H   0  0  0  0  0  0  0  0  0  0  0  0  # atno 22436 bound_to 22408
  180.1775   15.7589   50.0461 LP  0  0  0  0  0  0  0  0  0  0  0  0  # atno 27193 bound_to 16944
  180.1888   15.0204   48.5896 LP  0  0  0  0  0  0  0  0  0  0  0  0  # atno 27194 bound_to 16944
  181.5269   13.0754   51.2053 LP  0  0  0  0  0  0  0  0  0  0  0  0  # atno 27195 bound_to 18452
  182.6740   14.1691   51.5986 LP  0  0  0  0  0  0  0  0  0  0  0  0  # atno 27196 bound_to 18452
  186.7595    9.8437   56.9508 LP  0  0  0  0  0  0  0  0  0  0  0  0  # atno 27197 bound_to 18521
  186.8720   14.1012   57.8395 LP  0  0  0  0  0  0  0  0  0  0  0  0  # atno 27198 bound_to 18524
  185.4334   13.2109   57.4683 LP  0  0  0  0  0  0  0  0  0  0  0  0  # atno 27199 bound_to 18524
  185.3047   18.6902   59.0388 LP  0  0  0  0  0  0  0  0  0  0  0  0  # atno 27200 bound_to 18619
  186.6960   18.8661   58.0222 LP  0  0  0  0  0  0  0  0  0  0  0  0  # atno 27201 bound_to 18619
  186.1266   16.7625   58.5897 LP  0  0  0  0  0  0  0  0  0  0  0  0  # atno 27202 bound_to 18674
  185.0271   18.4345   55.0190 LP  0  0  0  0  0  0  0  0  0  0  0  0  # atno 27203 bound_to 18677
  183.6963   18.7712   56.0753 LP  0  0  0  0  0  0  0  0  0  0  0  0  # atno 27204 bound_to 18677
  184.0801   15.6121   57.5112 LP  0  0  0  0  0  0  0  0  0  0  0  0  # atno 27209 bound_to 18733
  184.7977   21.5816   58.4572 LP  0  0  0  0  0  0  0  0  0  0  0  0  # atno 27210 bound_to 18904
  183.4625   19.8751   55.7454 LP  0  0  0  0  0  0  0  0  0  0  0  0  # atno 27211 bound_to 18997
  184.4165    7.7124   48.6631 LP  0  0  0  0  0  0  0  0  0  0  0  0  # atno 27223 bound_to 17119
  185.5983    8.9727   48.7859 LP  0  0  0  0  0  0  0  0  0  0  0  0  # atno 27224 bound_to 17119
  183.2851   10.9229   47.3079 LP  0  0  0  0  0  0  0  0  0  0  0  0  # atno 27225 bound_to 17170
  185.8016   10.6089   46.1311 LP  0  0  0  0  0  0  0  0  0  0  0  0  # atno 27226 bound_to 17212
  178.9496   13.7284   47.7690 LP  0  0  0  0  0  0  0  0  0  0  0  0  # atno 27227 bound_to 11596
  179.7695   12.9005   46.4875 LP  0  0  0  0  0  0  0  0  0  0  0  0  # atno 27228 bound_to 11596
  180.5572   10.4445   49.2594 LP  0  0  0  0  0  0  0  0  0  0  0  0  # atno 27231 bound_to 17044
  180.0908    8.9857   48.4504 LP  0  0  0  0  0  0  0  0  0  0  0  0  # atno 27232 bound_to 17044
  182.0187   19.5525   57.2385 LP  0  0  0  0  0  0  0  0  0  0  0  0  # atno 27233 bound_to 18736
  181.0406   19.4328   58.6630 LP  0  0  0  0  0  0  0  0  0  0  0  0  # atno 27234 bound_to 18736
  183.6696   15.1117   59.2965 LP  0  0  0  0  0  0  0  0  0  0  0  0  # atno 27235 bound_to 18588
  184.1144   16.1795   60.5857 LP  0  0  0  0  0  0  0  0  0  0  0  0  # atno 27236 bound_to 18588
  182.2314   17.8571   58.6227 LP  0  0  0  0  0  0  0  0  0  0  0  0  # atno 27237 bound_to 18805
  183.8526   23.7930   55.6738 LP  0  0  0  0  0  0  0  0  0  0  0  0  # atno 27238 bound_to 18907
  182.3667   23.0869   55.1321 LP  0  0  0  0  0  0  0  0  0  0  0  0  # atno 27239 bound_to 18907
  178.9384   21.8929   54.8768 LP  0  0  0  0  0  0  0  0  0  0  0  0  # atno 27240 bound_to 19000
  180.1043   23.1458   54.6108 LP  0  0  0  0  0  0  0  0  0  0  0  0  # atno 27241 bound_to 19000
  180.8637   20.4875   56.9640 LP  0  0  0  0  0  0  0  0  0  0  0  0  # atno 27242 bound_to 19049
  182.5713   10.2888   44.1250 LP  0  0  0  0  0  0  0  0  0  0  0  0  # atno 27243 bound_to 17173
  183.8220   11.3060   43.4918 LP  0  0  0  0  0  0  0  0  0  0  0  0  # atno 27244 bound_to 17173
  187.5963    8.7996   54.8592 LP  0  0  0  0  0  0  0  0  0  0  0  0  # atno 27245 bound_to 18350
  187.7264    7.7090   53.5200 LP  0  0  0  0  0  0  0  0  0  0  0  0  # atno 27246 bound_to 18350
  184.9912    7.5925   55.8758 LP  0  0  0  0  0  0  0  0  0  0  0  0  # atno 27247 bound_to 18441
  185.4467   14.9088   42.1008 LP  0  0  0  0  0  0  0  0  0  0  0  0  # atno 27248 bound_to 11406
  184.7429   13.8125   43.2421 LP  0  0  0  0  0  0  0  0  0  0  0  0  # atno 27249 bound_to 11406
  185.7025    8.1498   45.2896 LP  0  0  0  0  0  0  0  0  0  0  0  0  # atno 27250 bound_to 18195
  187.3708    8.6073   45.3765 LP  0  0  0  0  0  0  0  0  0  0  0  0  # atno 27251 bound_to 18195
  187.2326    9.7201   43.1714 LP  0  0  0  0  0  0  0  0  0  0  0  0  # atno 27254 bound_to 17215
  186.3532    9.7288   41.6793 LP  0  0  0  0  0  0  0  0  0  0  0  0  # atno 27255 bound_to 17215
  186.4403   12.0069   42.3323 LP  0  0  0  0  0  0  0  0  0  0  0  0  # atno 27256 bound_to 17275
  186.3678    5.2537   45.3203 LP  0  0  0  0  0  0  0  0  0  0  0  0  # atno 27257 bound_to 18267
  186.5917    6.6939   49.6359 LP  0  0  0  0  0  0  0  0  0  0  0  0  # atno 27258 bound_to 18309
  186.8163    6.6973   52.2197 LP  0  0  0  0  0  0  0  0  0  0  0  0  # atno 27259 bound_to 18347
  184.3774    5.3473   50.9713 LP  0  0  0  0  0  0  0  0  0  0  0  0  # atno 27260 bound_to 18312
  184.7028    4.0191   52.0343 LP  0  0  0  0  0  0  0  0  0  0  0  0  # atno 27261 bound_to 18312
  186.7988    8.9298   58.6374 LP  0  0  0  0  0  0  0  0  0  0  0  0  # atno 27262 bound_to 18444
  185.6055    8.0967   57.6982 LP  0  0  0  0  0  0  0  0  0  0  0  0  # atno 27263 bound_to 18444
  194.6564    9.2890   53.7652 LP  0  0  0  0  0  0  0  0  0  0  0  0  # atno 27264 bound_to 7509
  186.6951    3.3005   48.2061 LP  0  0  0  0  0  0  0  0  0  0  0  0  # atno 27265 bound_to 18270
  188.3138    3.8748   47.9828 LP  0  0  0  0  0  0  0  0  0  0  0  0  # atno 27266 bound_to 18270
  195.8887   10.5693   53.0667 LP  0  0  0  0  0  0  0  0  0  0  0  0  # atno 27267 bound_to 7448
  187.1026   12.2015   60.4916 LP  0  0  0  0  0  0  0  0  0  0  0  0  # atno 27268 bound_to 18585
  189.5922    1.1798   51.5945 LP  0  0  0  0  0  0  0  0  0  0  0  0  # atno 27269 bound_to 10088
  188.5853    2.3959   51.1773 LP  0  0  0  0  0  0  0  0  0  0  0  0  # atno 27270 bound_to 10088
  184.1693    4.4307   46.0589 LP  0  0  0  0  0  0  0  0  0  0  0  0  # atno 27271 bound_to 18272
  183.8608    4.1230   47.6326 LP  0  0  0  0  0  0  0  0  0  0  0  0  # atno 27272 bound_to 18272
  178.7295   10.5021   54.8465 LP  0  0  0  0  0  0  0  0  0  0  0  0  # atno 27273 bound_to 16936
  178.9276   11.4511   53.4112 LP  0  0  0  0  0  0  0  0  0  0  0  0  # atno 27274 bound_to 16936

> <Gold.Score>
     Fitness  S(hb_ext) S(vdw_ext)  S(hb_int)    S(int)      intcor
     32.64       7.87      19.12       0.00      -1.52      -0.76

> <Gold.Goldscore.Fitness>
32.6365

> <Gold.Goldscore.Internal.Vdw>
-1.7470

> <Gold.Goldscore.Internal.Torsion>
-0.5268

> <Gold.Goldscore.External.Vdw>
19.1166

> <Gold.Goldscore.Internal.HBond>
0.0000

> <Gold.Goldscore.External.HBond>
7.8664

> <Gold.Goldscore.Internal.Correction>
-0.7585

> <Gold.Goldscore.Hbonds>
donor molecule, donor type, donor heavy atom, donor atom, acceptor molecule, acceptor atom, score
      L1  H     8    22       P1 19003  0.31
      L1  H    10    23       P1 27088  1.00

> <Gold.Goldscore.Internal.Vdw.Weighted>
-1.7470

> <Gold.Goldscore.Internal.Torsion.Weighted>
-0.5268

> <Gold.Goldscore.External.Vdw.Weighted>
26.2854

> <Gold.Goldscore.Internal.HBond.Weighted>
0.0000

> <Gold.Goldscore.External.HBond.Weighted>
7.8664

> <Gold.Goldscore.Internal.Correction.Weighted>
-0.7585

> <Gold.Rescore>
     Score     S(PLP)   S(hbond)     S(cho)   S(metal)  DE(clash)   DE(tors)     intcor
      4.37      -4.46       0.67       0.00       0.00       0.00       1.05       ----

> <Gold.PLP.Fitness>
4.3685

> <Gold.PLP.PLP>
-4.4625

> <Gold.PLP.part.hbond>
-2.4957

> <Gold.PLP.part.metal>
0.0000

> <Gold.PLP.part.buried>
13.3651

> <Gold.PLP.part.nonpolar>
-15.0795

> <Gold.PLP.part.repulsive>
4.3710

> <Gold.PLP.ligand.clash>
0.0000

> <Gold.PLP.ligand.torsion>
1.0464

> <Gold.PLP.Chemscore.Hbond>
0.6663

> <Gold.PLP.Chemscore.CHOScore>
0.0000

> <Gold.PLP.Chemscore.Metal>
0.0000

> <Gold.Chemscore.Hbonds>
donor molecule, donor type, donor heavy atom, donor atom, acceptor molecule, acceptor atom, score
      L1  H     8    22       P1 19003  0.23
      L1  H    10    23       P1 27088  0.55
      P1  H 19333 19370       L1     9  0.07

> <Gold.PLP.Chemscore.Internal.Correction>
   9.000000E+99

#       Name:                CT1002167954
#       Creating user name   hitesit
#       Creation time:       Sun Apr 16 22:56:25 2023


#       File generated by GOLD software.
#

@<TRIPOS>MOLECULE
CT1002167954|ligand_prepared|mol2|1|dock1
    29    30     1
SMALL
NO_CHARGES


@<TRIPOS>ATOM
      1 C1         185.5791  17.0161  50.8935 C.3            1 RES1               0.0000
      2 C2         186.0331  15.6615  50.3124 C.ar           1 RES1               0.0000
      3 C3         185.1760  17.8799  49.7020 C.2            1 RES1               0.0000
      4 C4         184.4353  16.7069  51.8530 C.2            1 RES1               0.0000
      5 C5         186.6810  17.7566  51.6866 C.3            1 RES1               0.0000
      6 C6         185.2122  14.5413  50.4017 C.ar           1 RES1               0.0000
      7 C7         187.2666  15.5174  49.6829 C.ar           1 RES1               0.0000
      8 N8         183.8445  18.0926  49.4975 N.am           1 RES1               0.0000
      9 O9         186.0117  18.3348  48.9307 O.2            1 RES1               0.0000
     10 N10        183.1867  17.1738  51.5354 N.am           1 RES1               0.0000
     11 O11        184.6007  16.0489  52.8728 O.2            1 RES1               0.0000
     12 C12        186.1707  18.9528  52.4744 C.3            1 RES1               0.0000
     13 C13        185.6088  13.3219  49.8782 C.ar           1 RES1               0.0000
     14 C14        187.6613  14.2970  49.1602 C.ar           1 RES1               0.0000
     15 C15        182.8336  17.8264  50.3858 C.2            1 RES1               0.0000
     16 C16        186.8332  13.1990  49.2567 C.ar           1 RES1               0.0000
     17 O17        181.6786  18.1671  50.1472 O.2            1 RES1               0.0000
     18 H18        187.1508  17.0501  52.3820 H              1 RES1               0.0000
     19 H19        187.4517  18.0988  50.9848 H              1 RES1               0.0000
     20 H20        184.2462  14.6182  50.8894 H              1 RES1               0.0000
     21 H21        187.9349  16.3674  49.5963 H              1 RES1               0.0000
     22 H22        183.5755  18.4859  48.6013 H              1 RES1               0.0000
     23 H23        182.4526  17.0209  52.2195 H              1 RES1               0.0000
     24 H24        186.9838  19.4360  53.0121 H              1 RES1               0.0000
     25 H25        185.7195  19.6877  51.8109 H              1 RES1               0.0000
     26 H26        185.4203  18.6452  53.1998 H              1 RES1               0.0000
     27 H27        184.9540  12.4604  49.9579 H              1 RES1               0.0000
     28 H28        188.6262  14.2048  48.6724 H              1 RES1               0.0000
     29 H29        187.1435  12.2437  48.8463 H              1 RES1               0.0000
@<TRIPOS>BOND
    1    1    2 1     
    2    1    3 1     
    3    1    4 1     
    4    1    5 1     
    5    2    6 ar    
    6    2    7 ar    
    7    3    8 1     
    8    3    9 2     
    9    4   10 1     
   10    4   11 2     
   11    5   12 1     
   12    5   18 1     
   13    5   19 1     
   14    6   13 ar    
   15    6   20 1     
   16    7   14 ar    
   17    7   21 1     
   18    8   15 1     
   19    8   22 1     
   20   10   15 1     
   21   10   23 1     
   22   12   24 1     
   23   12   25 1     
   24   12   26 1     
   25   13   16 ar    
   26   13   27 1     
   27   14   16 ar    
   28   14   28 1     
   29   15   17 2     
   30   16   29 1     
@<TRIPOS>SUBSTRUCTURE
      1 RES1           1
@<TRIPOS>SET
DONOR_HYDROGENS      STATIC     ATOMS    <user>   **** ""
2 22 23
ATOM$RED        STATIC     ATOMS    COLORGROUP SYSTEM
2 22 23
@<TRIPOS>COMMENT
> <Gold.Version>
2022.3.0

> <Gold.Id.Protein>
unknown|4d1n_clean|pdb

> <Gold.Protein.RotatedTorsions>
[ 16977 16944 16943 16941 ] final -110.71 input   59.98 | X-H torsion
[ 18494 18452 18451 18449 ] final  -41.28 input   59.98 | X-H torsion
[ 18554 18521 18522 18523 ] final   59.29 input   91.55 | X-H torsion
[ 18707 18674 18675 18676 ] final -105.95 input  121.65 | X-H torsion
[ 18768 18733 18734 18735 ] final  -96.78 input   95.18 | X-H torsion
[ 18950 18904 18905 18906 ] final  165.80 input   99.08 | X-H torsion
[ 19025 18997 18998 18999 ] final   23.30 input  121.68 | X-H torsion
[ 17185 17170 17171 17172 ] final -102.71 input   47.05 | X-H torsion
[ 17233 17212 17213 17214 ] final -126.11 input  118.29 | X-H torsion
[ 18820 18805 18806 18807 ] final  110.88 input  116.09 | X-H torsion
[ 19094 19049 19050 19051 ] final -134.17 input   88.91 | X-H torsion
[ 18486 18441 18442 18443 ] final   58.82 input  100.68 | X-H torsion
[ 17293 17275 17276 17277 ] final -172.05 input   51.25 | X-H torsion
[ 18289 18267 18268 18269 ] final  155.72 input   31.65 | X-H torsion
[ 18324 18309 18310 18311 ] final   28.74 input   53.83 | X-H torsion
[ 18399 18347 18348 18349 ] final  171.37 input   27.99 | X-H torsion
[ 7521 7509 7510 7511 ] final  -54.28 input   80.33 | X-H torsion
[ 7486 7448 7449 7450 ] final  151.43 input   99.31 | X-H torsion
[ 18600 18585 18586 18587 ] final  -58.62 input  129.83 | X-H torsion
[ 10110 10088 10087 10084 ] final -112.76 input   59.98 | X-H torsion
[ 18293 18272 18271 18268 ] final -114.20 input   59.99 | X-H torsion
[ 18650 18622 18620 18617 ] final  -59.48 input   59.97 | X-H torsion
[ 18866 18836 18837 18838 ] final  -21.87 input   87.55 | X-H torsion
[ 22436 22408 22409 22410 ] final  -46.21 input   59.22 | X-H torsion
[ 10146 10126 10127 10128 ] final  110.80 input   20.82 | X-H torsion
[ 18225 18192 18193 18194 ] final   66.28 input   40.98 | X-H torsion
[ 11813 11769 11770 11771 ] final   30.77 input   85.42 | X-H torsion
[ 16969 16933 16934 16935 ] final -148.87 input   88.91 | X-H torsion
[ 27198 18524 18523 18522 ] final  140.44 input    0.00 | X-H torsion
[ 27200 18619 18618 18617 ] final   29.78 input    0.00 | X-H torsion
[ 27203 18677 18676 18675 ] final -118.74 input    0.00 | X-H torsion
[ 27223 17119 17118 17117 ] final   -7.60 input    0.00 | X-H torsion
[ 27227 11596 11595 11594 ] final -154.01 input   -0.00 | X-H torsion
[ 27231 17044 17043 17042 ] final   81.13 input    0.00 | X-H torsion
[ 27233 18736 18735 18734 ] final  161.22 input   -0.00 | X-H torsion
[ 27235 18588 18587 18586 ] final  -20.19 input    0.00 | X-H torsion
[ 27238 18907 18906 18905 ] final -131.37 input    0.00 | X-H torsion
[ 27240 19000 18999 18998 ] final   95.07 input    0.00 | X-H torsion
[ 27243 17173 17172 17171 ] final  -26.80 input    0.00 | X-H torsion
[ 27245 18350 18349 18348 ] final -147.13 input    0.00 | X-H torsion
[ 27248 11406 11405 11404 ] final  135.52 input   -0.00 | X-H torsion
[ 27250 18195 18194 18193 ] final   96.12 input    0.00 | X-H torsion
[ 27254 17215 17214 17213 ] final   37.21 input   -0.00 | X-H torsion
[ 27260 18312 18311 18310 ] final   45.58 input   -0.00 | X-H torsion
[ 27262 18444 18443 18442 ] final   48.98 input    0.00 | X-H torsion
[ 27265 18270 18269 18268 ] final -147.49 input    0.00 | X-H torsion
[ 27273 16936 16935 16934 ] final   -6.20 input   -0.00 | X-H torsion

> <Gold.Protein.ActiveResidues>
 TRP414  CYS420  VAL421  GLY422  LEU460  SER462  ALA463  SER482  GLN483  ILE485 
 ARG486  TYR487  ASP500  ASN503  TRP566  TYR567  LEU569  PRO570  ALA571  VAL572 
 SER573  ASN574  PHE589  SER590  GLY591  TRP592  TYR593  MET594  GLY595  THR596 
 GLU597  ILE598  GLY599  VAL600  ARG601  ASP602  TYR603  ARG608  ILE653  VAL654 
 TRP683  PRO687  HEM750  H4B760 

> <Gold.Protein.RotatedAtoms>
  195.6952   12.1715   53.7449 H   0  0  0  0  0  0  0  0  0  0  0  0  # atno 7486 bound_to 7448
  196.0567    8.8653   54.6490 H   0  0  0  0  0  0  0  0  0  0  0  0  # atno 7521 bound_to 7509
  189.7939    2.8317   50.8642 H   0  0  0  0  0  0  0  0  0  0  0  0  # atno 10110 bound_to 10088
  186.6956    1.5712   47.4952 H   0  0  0  0  0  0  0  0  0  0  0  0  # atno 10146 bound_to 10126
  176.4344   17.7341   47.1131 H   0  0  0  0  0  0  0  0  0  0  0  0  # atno 11813 bound_to 11769
  175.2870   12.7356   53.6156 H   0  0  0  0  0  0  0  0  0  0  0  0  # atno 16969 bound_to 16933
  180.4999   15.5192   50.3040 H   0  0  0  0  0  0  0  0  0  0  0  0  # atno 16977 bound_to 16944
  183.9873    9.9389   48.1040 H   0  0  0  0  0  0  0  0  0  0  0  0  # atno 17185 bound_to 17170
  184.7849   10.9106   45.7968 H   0  0  0  0  0  0  0  0  0  0  0  0  # atno 17233 bound_to 17212
  185.3037   11.4792   42.7808 H   0  0  0  0  0  0  0  0  0  0  0  0  # atno 17293 bound_to 17275
  187.2331    8.1747   42.6948 H   0  0  0  0  0  0  0  0  0  0  0  0  # atno 18225 bound_to 18192
  186.3594    5.9673   45.1639 H   0  0  0  0  0  0  0  0  0  0  0  0  # atno 18289 bound_to 18267
  184.0576    4.4444   46.1193 H   0  0  0  0  0  0  0  0  0  0  0  0  # atno 18293 bound_to 18272
  186.4523    6.6357   49.6600 H   0  0  0  0  0  0  0  0  0  0  0  0  # atno 18324 bound_to 18309
  186.3484    5.1067   52.4356 H   0  0  0  0  0  0  0  0  0  0  0  0  # atno 18399 bound_to 18347
  184.7051    7.6665   55.8521 H   0  0  0  0  0  0  0  0  0  0  0  0  # atno 18486 bound_to 18441
  182.1627   14.5638   52.1554 H   0  0  0  0  0  0  0  0  0  0  0  0  # atno 18494 bound_to 18452
  187.0469   11.3827   56.2003 H   0  0  0  0  0  0  0  0  0  0  0  0  # atno 18554 bound_to 18521
  186.4572   12.2884   58.9973 H   0  0  0  0  0  0  0  0  0  0  0  0  # atno 18600 bound_to 18585
  188.9803   15.2762   59.9181 H   0  0  0  0  0  0  0  0  0  0  0  0  # atno 18650 bound_to 18622
  187.0878   16.7626   58.3686 H   0  0  0  0  0  0  0  0  0  0  0  0  # atno 18707 bound_to 18674
  184.4012   16.9301   56.4528 H   0  0  0  0  0  0  0  0  0  0  0  0  # atno 18768 bound_to 18733
  183.2001   16.7694   59.5946 H   0  0  0  0  0  0  0  0  0  0  0  0  # atno 18820 bound_to 18805
  183.5054   19.6717   59.5482 H   0  0  0  0  0  0  0  0  0  0  0  0  # atno 18866 bound_to 18836
  185.9825   20.7263   58.0569 H   0  0  0  0  0  0  0  0  0  0  0  0  # atno 18950 bound_to 18904
  183.1514   20.8917   56.4499 H   0  0  0  0  0  0  0  0  0  0  0  0  # atno 19025 bound_to 18997
  180.4426   21.0061   56.0705 H   0  0  0  0  0  0  0  0  0  0  0  0  # atno 19094 bound_to 19049
  185.5772    7.9605   60.7414 H   0  0  0  0  0  0  0  0  0  0  0  0  # atno 22436 bound_to 22408
  179.9468   15.3879   48.7795 LP  0  0  0  0  0  0  0  0  0  0  0  0  # atno 27193 bound_to 16944
  181.0959   14.3641   49.3254 LP  0  0  0  0  0  0  0  0  0  0  0  0  # atno 27194 bound_to 16944
  180.9150   13.5569   51.8756 LP  0  0  0  0  0  0  0  0  0  0  0  0  # atno 27195 bound_to 18452
  182.3262   13.3536   51.0795 LP  0  0  0  0  0  0  0  0  0  0  0  0  # atno 27196 bound_to 18452
  186.9551    9.7827   56.9016 LP  0  0  0  0  0  0  0  0  0  0  0  0  # atno 27197 bound_to 18521
  185.3492   13.5995   57.9720 LP  0  0  0  0  0  0  0  0  0  0  0  0  # atno 27198 bound_to 18524
  186.9562   13.7126   57.3359 LP  0  0  0  0  0  0  0  0  0  0  0  0  # atno 27199 bound_to 18524
  186.5118   19.0140   59.1883 LP  0  0  0  0  0  0  0  0  0  0  0  0  # atno 27200 bound_to 18619
  185.4889   18.5423   57.8726 LP  0  0  0  0  0  0  0  0  0  0  0  0  # atno 27201 bound_to 18619
  186.0252   15.3847   58.2279 LP  0  0  0  0  0  0  0  0  0  0  0  0  # atno 27202 bound_to 18674
  184.1328   19.0038   56.2798 LP  0  0  0  0  0  0  0  0  0  0  0  0  # atno 27203 bound_to 18677
  184.5907   18.2019   54.8144 LP  0  0  0  0  0  0  0  0  0  0  0  0  # atno 27204 bound_to 18677
  184.1443   15.7970   57.7625 LP  0  0  0  0  0  0  0  0  0  0  0  0  # atno 27209 bound_to 18733
  184.2584   20.9811   58.1612 LP  0  0  0  0  0  0  0  0  0  0  0  0  # atno 27210 bound_to 18904
  183.8987   20.5782   54.9028 LP  0  0  0  0  0  0  0  0  0  0  0  0  # atno 27211 bound_to 18997
  184.9916    8.4892   49.5778 LP  0  0  0  0  0  0  0  0  0  0  0  0  # atno 27223 bound_to 17119
  185.0232    8.1959   47.8711 LP  0  0  0  0  0  0  0  0  0  0  0  0  # atno 27224 bound_to 17119
  182.4843   10.3804   47.3290 LP  0  0  0  0  0  0  0  0  0  0  0  0  # atno 27225 bound_to 17170
  185.8956    9.7291   45.1382 LP  0  0  0  0  0  0  0  0  0  0  0  0  # atno 27226 bound_to 17212
  179.0247   13.9781   47.5725 LP  0  0  0  0  0  0  0  0  0  0  0  0  # atno 27227 bound_to 11596
  179.6945   12.6508   46.6840 LP  0  0  0  0  0  0  0  0  0  0  0  0  # atno 27228 bound_to 11596
  179.9073   10.1537   49.4746 LP  0  0  0  0  0  0  0  0  0  0  0  0  # atno 27231 bound_to 17044
  180.7406    9.2765   48.2352 LP  0  0  0  0  0  0  0  0  0  0  0  0  # atno 27232 bound_to 17044
  181.3715   19.6092   58.7942 LP  0  0  0  0  0  0  0  0  0  0  0  0  # atno 27233 bound_to 18736
  181.6878   19.3761   57.1073 LP  0  0  0  0  0  0  0  0  0  0  0  0  # atno 27234 bound_to 18736
  183.4563   14.9337   59.7101 LP  0  0  0  0  0  0  0  0  0  0  0  0  # atno 27235 bound_to 18588
  184.3277   16.3575   60.1721 LP  0  0  0  0  0  0  0  0  0  0  0  0  # atno 27236 bound_to 18588
  182.2362   17.8602   58.6215 LP  0  0  0  0  0  0  0  0  0  0  0  0  # atno 27237 bound_to 18805
  182.3734   23.2289   55.8072 LP  0  0  0  0  0  0  0  0  0  0  0  0  # atno 27238 bound_to 18907
  183.8458   23.6510   54.9987 LP  0  0  0  0  0  0  0  0  0  0  0  0  # atno 27239 bound_to 18907
  178.9645   21.8586   54.8015 LP  0  0  0  0  0  0  0  0  0  0  0  0  # atno 27240 bound_to 19000
  180.0782   23.1801   54.6861 LP  0  0  0  0  0  0  0  0  0  0  0  0  # atno 27241 bound_to 19000
  181.7212   21.4831   57.1633 LP  0  0  0  0  0  0  0  0  0  0  0  0  # atno 27242 bound_to 19049
  182.7560   10.0537   43.8612 LP  0  0  0  0  0  0  0  0  0  0  0  0  # atno 27243 bound_to 17173
  183.6373   11.5411   43.7556 LP  0  0  0  0  0  0  0  0  0  0  0  0  # atno 27244 bound_to 17173
  187.6843    8.6063   54.9805 LP  0  0  0  0  0  0  0  0  0  0  0  0  # atno 27245 bound_to 18350
  187.6385    7.9022   53.3987 LP  0  0  0  0  0  0  0  0  0  0  0  0  # atno 27246 bound_to 18350
  185.3772    8.0875   54.2948 LP  0  0  0  0  0  0  0  0  0  0  0  0  # atno 27247 bound_to 18441
  184.9170   14.3341   43.5186 LP  0  0  0  0  0  0  0  0  0  0  0  0  # atno 27248 bound_to 11406
  185.2726   14.3872   41.8243 LP  0  0  0  0  0  0  0  0  0  0  0  0  # atno 27249 bound_to 11406
  185.7174    8.1787   45.1356 LP  0  0  0  0  0  0  0  0  0  0  0  0  # atno 27250 bound_to 18195
  187.3558    8.5785   45.5305 LP  0  0  0  0  0  0  0  0  0  0  0  0  # atno 27251 bound_to 18195
  186.5204    9.3793   43.1714 LP  0  0  0  0  0  0  0  0  0  0  0  0  # atno 27254 bound_to 17215
  187.0654   10.0696   41.6793 LP  0  0  0  0  0  0  0  0  0  0  0  0  # atno 27255 bound_to 17215
  185.9030   12.9585   42.0820 LP  0  0  0  0  0  0  0  0  0  0  0  0  # atno 27256 bound_to 17275
  187.8237    5.3618   45.8983 LP  0  0  0  0  0  0  0  0  0  0  0  0  # atno 27257 bound_to 18267
  187.3349    5.4493   48.7216 LP  0  0  0  0  0  0  0  0  0  0  0  0  # atno 27258 bound_to 18309
  187.1840    6.6412   52.5769 LP  0  0  0  0  0  0  0  0  0  0  0  0  # atno 27259 bound_to 18347
  184.8793    3.9128   51.2992 LP  0  0  0  0  0  0  0  0  0  0  0  0  # atno 27260 bound_to 18312
  184.2009    5.4536   51.7064 LP  0  0  0  0  0  0  0  0  0  0  0  0  # atno 27261 bound_to 18312
  186.2280    7.8982   57.5587 LP  0  0  0  0  0  0  0  0  0  0  0  0  # atno 27262 bound_to 18444
  186.1762    9.1283   58.7769 LP  0  0  0  0  0  0  0  0  0  0  0  0  # atno 27263 bound_to 18444
  194.5058    9.3960   54.0543 LP  0  0  0  0  0  0  0  0  0  0  0  0  # atno 27264 bound_to 7509
  187.2879    3.3618   48.9020 LP  0  0  0  0  0  0  0  0  0  0  0  0  # atno 27265 bound_to 18270
  187.7210    3.8135   47.2869 LP  0  0  0  0  0  0  0  0  0  0  0  0  # atno 27266 bound_to 18270
  195.8466   10.5609   53.0745 LP  0  0  0  0  0  0  0  0  0  0  0  0  # atno 27267 bound_to 7448
  186.7504   11.7048   60.6178 LP  0  0  0  0  0  0  0  0  0  0  0  0  # atno 27268 bound_to 18585
  190.0456    1.3454   51.4772 LP  0  0  0  0  0  0  0  0  0  0  0  0  # atno 27269 bound_to 10088
  188.5297    1.9441   51.3763 LP  0  0  0  0  0  0  0  0  0  0  0  0  # atno 27270 bound_to 10088
  183.9602    4.0833   47.7028 LP  0  0  0  0  0  0  0  0  0  0  0  0  # atno 27271 bound_to 18272
  185.3851    3.9455   46.9170 LP  0  0  0  0  0  0  0  0  0  0  0  0  # atno 27272 bound_to 18272
  178.5192   11.7482   53.8863 LP  0  0  0  0  0  0  0  0  0  0  0  0  # atno 27273 bound_to 16936
  179.1380   10.2050   54.3715 LP  0  0  0  0  0  0  0  0  0  0  0  0  # atno 27274 bound_to 16936

> <Gold.Score>
     Fitness  S(hb_ext) S(vdw_ext)  S(hb_int)    S(int)      intcor
     32.35       5.73      20.50       0.00      -1.56      -0.85

> <Gold.Goldscore.Fitness>
32.3503

> <Gold.Goldscore.Internal.Vdw>
-1.8653

> <Gold.Goldscore.Internal.Torsion>
-0.5496

> <Gold.Goldscore.External.Vdw>
20.4991

> <Gold.Goldscore.Internal.HBond>
0.0000

> <Gold.Goldscore.External.HBond>
5.7287

> <Gold.Goldscore.Internal.Correction>
-0.8503

> <Gold.Goldscore.Hbonds>
donor molecule, donor type, donor heavy atom, donor atom, acceptor molecule, acceptor atom, score
      P1  H 11682 11730       L1    17  0.51
      P1  H 19334 19372       L1    17  0.24
      L1  H    10    23       P1 19004  0.21

> <Gold.Goldscore.Internal.Vdw.Weighted>
-1.8653

> <Gold.Goldscore.Internal.Torsion.Weighted>
-0.5496

> <Gold.Goldscore.External.Vdw.Weighted>
28.1862

> <Gold.Goldscore.Internal.HBond.Weighted>
0.0000

> <Gold.Goldscore.External.HBond.Weighted>
5.7287

> <Gold.Goldscore.Internal.Correction.Weighted>
-0.8503

> <Gold.Rescore>
     Score     S(PLP)   S(hbond)     S(cho)   S(metal)  DE(clash)   DE(tors)     intcor
     24.18     -19.05       2.43       0.00       0.00       2.13       0.02       ----

> <Gold.PLP.Fitness>
24.1845

> <Gold.PLP.PLP>
-19.0509

> <Gold.PLP.part.hbond>
-4.8884

> <Gold.PLP.part.metal>
0.0000

> <Gold.PLP.part.buried>
11.6610

> <Gold.PLP.part.nonpolar>
-29.1040

> <Gold.PLP.part.repulsive>
2.1626

> <Gold.PLP.ligand.clash>
2.1288

> <Gold.PLP.ligand.torsion>
0.0179

> <Gold.PLP.Chemscore.Hbond>
2.4328

> <Gold.PLP.Chemscore.CHOScore>
0.0000

> <Gold.PLP.Chemscore.Metal>
0.0000

> <Gold.Chemscore.Hbonds>
donor molecule, donor type, donor heavy atom, donor atom, acceptor molecule, acceptor atom, score
      L1  H    10    23       P1 19004  0.69
      P1  H 11682 11730       L1    17  1.00
      P1  H 19334 19372       L1    17  0.89

> <Gold.PLP.Chemscore.Internal.Correction>
   9.000000E+99

#       Name:                CT1002167954
#       Creating user name   hitesit
#       Creation time:       Sun Apr 16 22:56:31 2023


#       File generated by GOLD software.
#

@<TRIPOS>MOLECULE
CT1002167954|ligand_prepared|mol2|1|dock8
    29    30     1
SMALL
NO_CHARGES


@<TRIPOS>ATOM
      1 C1         186.3983  20.2102  49.3132 C.3            1 RES1               0.0000
      2 C2         186.4552  19.1368  48.2072 C.ar           1 RES1               0.0000
      3 C3         185.7349  19.5494  50.5180 C.2            1 RES1               0.0000
      4 C4         187.8383  20.6473  49.5580 C.2            1 RES1               0.0000
      5 C5         185.5780  21.4629  48.9265 C.3            1 RES1               0.0000
      6 C6         187.5292  18.2552  48.1300 C.ar           1 RES1               0.0000
      7 C7         185.4417  19.0143  47.2604 C.ar           1 RES1               0.0000
      8 N8         186.5301  19.2219  51.5764 N.am           1 RES1               0.0000
      9 O9         184.5392  19.2838  50.5232 O.2            1 RES1               0.0000
     10 N10        188.3963  20.3658  50.7775 N.am           1 RES1               0.0000
     11 O11        188.5003  21.2182  48.6999 O.2            1 RES1               0.0000
     12 C12        185.8339  22.6642  49.8229 C.3            1 RES1               0.0000
     13 C13        187.5866  17.2843  47.1438 C.ar           1 RES1               0.0000
     14 C14        185.5012  18.0429  46.2749 C.ar           1 RES1               0.0000
     15 C15        187.8176  19.6457  51.7868 C.2            1 RES1               0.0000
     16 C16        186.5726  17.1772  46.2160 C.ar           1 RES1               0.0000
     17 O17        188.4035  19.3869  52.8341 O.2            1 RES1               0.0000
     18 H18        185.8183  21.7368  47.8918 H              1 RES1               0.0000
     19 H19        184.5107  21.2126  48.9678 H              1 RES1               0.0000
     20 H20        188.3377  18.3258  48.8500 H              1 RES1               0.0000
     21 H21        184.5897  19.6851  47.2867 H              1 RES1               0.0000
     22 H22        186.1305  18.6046  52.2762 H              1 RES1               0.0000
     23 H23        189.3295  20.7266  50.9487 H              1 RES1               0.0000
     24 H24        185.2337  23.5152  49.5081 H              1 RES1               0.0000
     25 H25        185.5815  22.4352  50.8562 H              1 RES1               0.0000
     26 H26        186.8814  22.9563  49.7866 H              1 RES1               0.0000
     27 H27        188.4326  16.6064  47.1010 H              1 RES1               0.0000
     28 H28        184.7012  17.9627  45.5463 H              1 RES1               0.0000
     29 H29        186.6176  16.4164  45.4438 H              1 RES1               0.0000
@<TRIPOS>BOND
    1    1    2 1     
    2    1    3 1     
    3    1    4 1     
    4    1    5 1     
    5    2    6 ar    
    6    2    7 ar    
    7    3    8 1     
    8    3    9 2     
    9    4   10 1     
   10    4   11 2     
   11    5   12 1     
   12    5   18 1     
   13    5   19 1     
   14    6   13 ar    
   15    6   20 1     
   16    7   14 ar    
   17    7   21 1     
   18    8   15 1     
   19    8   22 1     
   20   10   15 1     
   21   10   23 1     
   22   12   24 1     
   23   12   25 1     
   24   12   26 1     
   25   13   16 ar    
   26   13   27 1     
   27   14   16 ar    
   28   14   28 1     
   29   15   17 2     
   30   16   29 1     
@<TRIPOS>SUBSTRUCTURE
      1 RES1           1
@<TRIPOS>SET
DONOR_HYDROGENS      STATIC     ATOMS    <user>   **** ""
2 22 23
ATOM$RED        STATIC     ATOMS    COLORGROUP SYSTEM
2 22 23
@<TRIPOS>COMMENT
> <Gold.Version>
2022.3.0

> <Gold.Id.Protein>
unknown|4d1n_clean|pdb

> <Gold.Protein.RotatedTorsions>
[ 16977 16944 16943 16941 ] final   40.15 input   59.98 | X-H torsion
[ 18494 18452 18451 18449 ] final   -8.16 input   59.98 | X-H torsion
[ 18554 18521 18522 18523 ] final   16.17 input   91.55 | X-H torsion
[ 18707 18674 18675 18676 ] final -167.41 input  121.65 | X-H torsion
[ 18768 18733 18734 18735 ] final  108.63 input   95.18 | X-H torsion
[ 18950 18904 18905 18906 ] final -116.62 input   99.08 | X-H torsion
[ 19025 18997 18998 18999 ] final  107.64 input  121.68 | X-H torsion
[ 17185 17170 17171 17172 ] final  -84.99 input   47.05 | X-H torsion
[ 17233 17212 17213 17214 ] final -103.33 input  118.29 | X-H torsion
[ 18820 18805 18806 18807 ] final -131.47 input  116.09 | X-H torsion
[ 19094 19049 19050 19051 ] final -131.23 input   88.91 | X-H torsion
[ 18486 18441 18442 18443 ] final -171.48 input  100.68 | X-H torsion
[ 17293 17275 17276 17277 ] final  -44.85 input   51.25 | X-H torsion
[ 18289 18267 18268 18269 ] final  -39.04 input   31.65 | X-H torsion
[ 18324 18309 18310 18311 ] final   71.62 input   53.83 | X-H torsion
[ 18399 18347 18348 18349 ] final  120.12 input   27.99 | X-H torsion
[ 7521 7509 7510 7511 ] final -116.53 input   80.33 | X-H torsion
[ 7486 7448 7449 7450 ] final  103.45 input   99.31 | X-H torsion
[ 18600 18585 18586 18587 ] final   42.62 input  129.83 | X-H torsion
[ 10110 10088 10087 10084 ] final  -70.55 input   59.98 | X-H torsion
[ 18293 18272 18271 18268 ] final    0.04 input   59.99 | X-H torsion
[ 18650 18622 18620 18617 ] final   99.53 input   59.97 | X-H torsion
[ 18866 18836 18837 18838 ] final  136.16 input   87.55 | X-H torsion
[ 22436 22408 22409 22410 ] final  -69.88 input   59.22 | X-H torsion
[ 10146 10126 10127 10128 ] final -175.86 input   20.82 | X-H torsion
[ 18225 18192 18193 18194 ] final   44.05 input   40.98 | X-H torsion
[ 11813 11769 11770 11771 ] final  148.66 input   85.42 | X-H torsion
[ 16969 16933 16934 16935 ] final  111.15 input   88.91 | X-H torsion
[ 27198 18524 18523 18522 ] final   43.03 input    0.00 | X-H torsion
[ 27200 18619 18618 18617 ] final    5.75 input    0.00 | X-H torsion
[ 27203 18677 18676 18675 ] final -159.19 input    0.00 | X-H torsion
[ 27223 17119 17118 17117 ] final  -62.48 input    0.00 | X-H torsion
[ 27227 11596 11595 11594 ] final -160.46 input   -0.00 | X-H torsion
[ 27231 17044 17043 17042 ] final  -13.83 input    0.00 | X-H torsion
[ 27233 18736 18735 18734 ] final   39.65 input   -0.00 | X-H torsion
[ 27235 18588 18587 18586 ] final -101.57 input    0.00 | X-H torsion
[ 27238 18907 18906 18905 ] final -154.18 input    0.00 | X-H torsion
[ 27240 19000 18999 18998 ] final -159.08 input    0.00 | X-H torsion
[ 27243 17173 17172 17171 ] final  154.61 input    0.00 | X-H torsion
[ 27245 18350 18349 18348 ] final  127.92 input    0.00 | X-H torsion
[ 27248 11406 11405 11404 ] final -116.86 input   -0.00 | X-H torsion
[ 27250 18195 18194 18193 ] final  -13.00 input    0.00 | X-H torsion
[ 27254 17215 17214 17213 ] final   72.66 input   -0.00 | X-H torsion
[ 27260 18312 18311 18310 ] final  175.51 input   -0.00 | X-H torsion
[ 27262 18444 18443 18442 ] final  -64.83 input    0.00 | X-H torsion
[ 27265 18270 18269 18268 ] final   92.98 input    0.00 | X-H torsion
[ 27273 16936 16935 16934 ] final   54.84 input   -0.00 | X-H torsion

> <Gold.Protein.ActiveResidues>
 TRP414  CYS420  VAL421  GLY422  LEU460  SER462  ALA463  SER482  GLN483  ILE485 
 ARG486  TYR487  ASP500  ASN503  TRP566  TYR567  LEU569  PRO570  ALA571  VAL572 
 SER573  ASN574  PHE589  SER590  GLY591  TRP592  TYR593  MET594  GLY595  THR596 
 GLU597  ILE598  GLY599  VAL600  ARG601  ASP602  TYR603  ARG608  ILE653  VAL654 
 TRP683  PRO687  HEM750  H4B760 

> <Gold.Protein.RotatedAtoms>
  195.0816   11.7867   53.7614 H   0  0  0  0  0  0  0  0  0  0  0  0  # atno 7486 bound_to 7448
  195.4330    9.2091   55.2091 H   0  0  0  0  0  0  0  0  0  0  0  0  # atno 7521 bound_to 7509
  189.1226    2.8575   50.9219 H   0  0  0  0  0  0  0  0  0  0  0  0  # atno 10110 bound_to 10088
  187.3706    0.7850   47.6760 H   0  0  0  0  0  0  0  0  0  0  0  0  # atno 10146 bound_to 10126
  175.8927   16.7278   48.1193 H   0  0  0  0  0  0  0  0  0  0  0  0  # atno 11813 bound_to 11769
  176.4098   13.1208   52.9525 H   0  0  0  0  0  0  0  0  0  0  0  0  # atno 16969 bound_to 16933
  180.8447   14.4298   48.8981 H   0  0  0  0  0  0  0  0  0  0  0  0  # atno 16977 bound_to 16944
  184.0639   10.1774   47.9966 H   0  0  0  0  0  0  0  0  0  0  0  0  # atno 17185 bound_to 17170
  184.6001   10.7852   45.5258 H   0  0  0  0  0  0  0  0  0  0  0  0  # atno 17233 bound_to 17212
  186.4292   12.4036   42.2074 H   0  0  0  0  0  0  0  0  0  0  0  0  # atno 17293 bound_to 17275
  186.9417    8.1839   42.8643 H   0  0  0  0  0  0  0  0  0  0  0  0  # atno 18225 bound_to 18192
  187.9029    5.5721   45.8871 H   0  0  0  0  0  0  0  0  0  0  0  0  # atno 18289 bound_to 18267
  185.3798    3.9712   46.8260 H   0  0  0  0  0  0  0  0  0  0  0  0  # atno 18293 bound_to 18272
  187.0836    6.7902   49.6139 H   0  0  0  0  0  0  0  0  0  0  0  0  # atno 18324 bound_to 18309
  186.9234    5.1283   52.9535 H   0  0  0  0  0  0  0  0  0  0  0  0  # atno 18399 bound_to 18347
  184.6482    8.2197   54.3501 H   0  0  0  0  0  0  0  0  0  0  0  0  # atno 18486 bound_to 18441
  182.5464   14.3801   51.8328 H   0  0  0  0  0  0  0  0  0  0  0  0  # atno 18494 bound_to 18452
  186.4640   11.2728   56.4709 H   0  0  0  0  0  0  0  0  0  0  0  0  # atno 18554 bound_to 18521
  187.2135   12.5686   60.0997 H   0  0  0  0  0  0  0  0  0  0  0  0  # atno 18600 bound_to 18585
  189.4010   16.7472   58.8946 H   0  0  0  0  0  0  0  0  0  0  0  0  # atno 18650 bound_to 18622
  187.3980   15.9709   58.0742 H   0  0  0  0  0  0  0  0  0  0  0  0  # atno 18707 bound_to 18674
  184.0432   15.5674   57.4683 H   0  0  0  0  0  0  0  0  0  0  0  0  # atno 18768 bound_to 18733
  181.8344   17.1661   59.0452 H   0  0  0  0  0  0  0  0  0  0  0  0  # atno 18820 bound_to 18805
  184.7610   19.0107   60.5528 H   0  0  0  0  0  0  0  0  0  0  0  0  # atno 18866 bound_to 18836
  185.4350   21.5909   58.4704 H   0  0  0  0  0  0  0  0  0  0  0  0  # atno 18950 bound_to 18904
  183.3974   19.8857   55.8749 H   0  0  0  0  0  0  0  0  0  0  0  0  # atno 19025 bound_to 18997
  180.4495   21.0448   56.0475 H   0  0  0  0  0  0  0  0  0  0  0  0  # atno 19094 bound_to 19049
  185.5301    7.6182   60.8338 H   0  0  0  0  0  0  0  0  0  0  0  0  # atno 22436 bound_to 22408
  180.8441   15.1597   50.3522 LP  0  0  0  0  0  0  0  0  0  0  0  0  # atno 27193 bound_to 16944
  179.8513   15.6896   49.1688 LP  0  0  0  0  0  0  0  0  0  0  0  0  # atno 27194 bound_to 16944
  181.0080   13.9845   52.1876 LP  0  0  0  0  0  0  0  0  0  0  0  0  # atno 27195 bound_to 18452
  181.8468   13.1108   51.0922 LP  0  0  0  0  0  0  0  0  0  0  0  0  # atno 27196 bound_to 18452
  187.5214    9.8894   56.6386 LP  0  0  0  0  0  0  0  0  0  0  0  0  # atno 27197 bound_to 18521
  186.0598   13.0811   57.0130 LP  0  0  0  0  0  0  0  0  0  0  0  0  # atno 27198 bound_to 18524
  186.2456   14.2311   58.2948 LP  0  0  0  0  0  0  0  0  0  0  0  0  # atno 27199 bound_to 18524
  186.1955   18.9631   59.3537 LP  0  0  0  0  0  0  0  0  0  0  0  0  # atno 27200 bound_to 18619
  185.8052   18.5932   57.7072 LP  0  0  0  0  0  0  0  0  0  0  0  0  # atno 27201 bound_to 18619
  185.7203   16.1629   58.5172 LP  0  0  0  0  0  0  0  0  0  0  0  0  # atno 27202 bound_to 18674
  183.6575   18.7357   56.0334 LP  0  0  0  0  0  0  0  0  0  0  0  0  # atno 27203 bound_to 18677
  185.0659   18.4700   55.0609 LP  0  0  0  0  0  0  0  0  0  0  0  0  # atno 27204 bound_to 18677
  184.4904   17.1143   56.7809 LP  0  0  0  0  0  0  0  0  0  0  0  0  # atno 27209 bound_to 18733
  184.7960   20.1320   57.7552 LP  0  0  0  0  0  0  0  0  0  0  0  0  # atno 27210 bound_to 18904
  183.6577   21.5636   55.4660 LP  0  0  0  0  0  0  0  0  0  0  0  0  # atno 27211 bound_to 18997
  185.4921    8.9289   49.1382 LP  0  0  0  0  0  0  0  0  0  0  0  0  # atno 27223 bound_to 17119
  184.5227    7.7562   48.3107 LP  0  0  0  0  0  0  0  0  0  0  0  0  # atno 27224 bound_to 17119
  182.4096   10.1477   47.4338 LP  0  0  0  0  0  0  0  0  0  0  0  0  # atno 27225 bound_to 17170
  186.0746    9.8505   45.4006 LP  0  0  0  0  0  0  0  0  0  0  0  0  # atno 27226 bound_to 17212
  179.0568   14.0354   47.5005 LP  0  0  0  0  0  0  0  0  0  0  0  0  # atno 27227 bound_to 11596
  179.6624   12.5935   46.7560 LP  0  0  0  0  0  0  0  0  0  0  0  0  # atno 27228 bound_to 11596
  179.7226    9.0959   48.7842 LP  0  0  0  0  0  0  0  0  0  0  0  0  # atno 27231 bound_to 17044
  180.9253   10.3343   48.9256 LP  0  0  0  0  0  0  0  0  0  0  0  0  # atno 27232 bound_to 17044
  180.9493   19.1184   57.4281 LP  0  0  0  0  0  0  0  0  0  0  0  0  # atno 27233 bound_to 18736
  182.1100   19.8669   58.4734 LP  0  0  0  0  0  0  0  0  0  0  0  0  # atno 27234 bound_to 18736
  184.0800   15.6470   59.0958 LP  0  0  0  0  0  0  0  0  0  0  0  0  # atno 27235 bound_to 18588
  183.7039   15.6443   60.7865 LP  0  0  0  0  0  0  0  0  0  0  0  0  # atno 27236 bound_to 18588
  183.5542   17.4774   59.1517 LP  0  0  0  0  0  0  0  0  0  0  0  0  # atno 27237 bound_to 18805
  182.3035   23.1345   55.4856 LP  0  0  0  0  0  0  0  0  0  0  0  0  # atno 27238 bound_to 18907
  183.9158   23.7454   55.3203 LP  0  0  0  0  0  0  0  0  0  0  0  0  # atno 27239 bound_to 18907
  179.3955   22.9976   55.4547 LP  0  0  0  0  0  0  0  0  0  0  0  0  # atno 27240 bound_to 19000
  179.6471   22.0411   54.0329 LP  0  0  0  0  0  0  0  0  0  0  0  0  # atno 27241 bound_to 19000
  181.7145   21.4454   57.1858 LP  0  0  0  0  0  0  0  0  0  0  0  0  # atno 27242 bound_to 19049
  183.6498   11.5323   43.7409 LP  0  0  0  0  0  0  0  0  0  0  0  0  # atno 27243 bound_to 17173
  182.7435   10.0625   43.8760 LP  0  0  0  0  0  0  0  0  0  0  0  0  # atno 27244 bound_to 17173
  187.3532    9.0240   53.9393 LP  0  0  0  0  0  0  0  0  0  0  0  0  # atno 27245 bound_to 18350
  187.9695    7.4846   54.4399 LP  0  0  0  0  0  0  0  0  0  0  0  0  # atno 27246 bound_to 18350
  185.4327    7.5479   55.7599 LP  0  0  0  0  0  0  0  0  0  0  0  0  # atno 27247 bound_to 18441
  184.8344   13.6107   42.3253 LP  0  0  0  0  0  0  0  0  0  0  0  0  # atno 27248 bound_to 11406
  185.3552   15.1106   43.0176 LP  0  0  0  0  0  0  0  0  0  0  0  0  # atno 27249 bound_to 11406
  186.9536    8.6119   44.6108 LP  0  0  0  0  0  0  0  0  0  0  0  0  # atno 27250 bound_to 18195
  186.1196    8.1452   46.0553 LP  0  0  0  0  0  0  0  0  0  0  0  0  # atno 27251 bound_to 18195
  186.1428    9.3022   42.8115 LP  0  0  0  0  0  0  0  0  0  0  0  0  # atno 27254 bound_to 17215
  187.4430   10.1467   42.0392 LP  0  0  0  0  0  0  0  0  0  0  0  0  # atno 27255 bound_to 17215
  184.7843   12.0396   42.6519 LP  0  0  0  0  0  0  0  0  0  0  0  0  # atno 27256 bound_to 17275
  186.3114    5.7491   45.1898 LP  0  0  0  0  0  0  0  0  0  0  0  0  # atno 27257 bound_to 18267
  186.7257    5.3002   48.7661 LP  0  0  0  0  0  0  0  0  0  0  0  0  # atno 27258 bound_to 18309
  186.6330    6.6205   52.0806 LP  0  0  0  0  0  0  0  0  0  0  0  0  # atno 27259 bound_to 18347
  184.2790    4.9905   52.2692 LP  0  0  0  0  0  0  0  0  0  0  0  0  # atno 27260 bound_to 18312
  184.8012    4.3758   50.7364 LP  0  0  0  0  0  0  0  0  0  0  0  0  # atno 27261 bound_to 18312
  185.4014    8.7814   58.3601 LP  0  0  0  0  0  0  0  0  0  0  0  0  # atno 27262 bound_to 18444
  187.0028    8.2450   57.9755 LP  0  0  0  0  0  0  0  0  0  0  0  0  # atno 27263 bound_to 18444
  195.1230    9.0557   53.5001 LP  0  0  0  0  0  0  0  0  0  0  0  0  # atno 27264 bound_to 7509
  188.3032    3.8809   47.9328 LP  0  0  0  0  0  0  0  0  0  0  0  0  # atno 27265 bound_to 18270
  186.7058    3.2944   48.2560 LP  0  0  0  0  0  0  0  0  0  0  0  0  # atno 27266 bound_to 18270
  196.4388   10.9322   53.0585 LP  0  0  0  0  0  0  0  0  0  0  0  0  # atno 27267 bound_to 7448
  186.0113   11.4309   59.5403 LP  0  0  0  0  0  0  0  0  0  0  0  0  # atno 27268 bound_to 18585
  190.3844    1.8730   51.2168 LP  0  0  0  0  0  0  0  0  0  0  0  0  # atno 27269 bound_to 10088
  188.8668    1.3906   51.5785 LP  0  0  0  0  0  0  0  0  0  0  0  0  # atno 27270 bound_to 10088
  183.9736    4.4507   46.1625 LP  0  0  0  0  0  0  0  0  0  0  0  0  # atno 27271 bound_to 18272
  184.0399    4.0548   47.7454 LP  0  0  0  0  0  0  0  0  0  0  0  0  # atno 27272 bound_to 18272
  178.3099   11.4095   54.6707 LP  0  0  0  0  0  0  0  0  0  0  0  0  # atno 27273 bound_to 16936
  179.3472   10.5437   53.5870 LP  0  0  0  0  0  0  0  0  0  0  0  0  # atno 27274 bound_to 16936

> <Gold.Score>
     Fitness  S(hb_ext) S(vdw_ext)  S(hb_int)    S(int)      intcor
     31.52       6.38      18.71       0.00      -0.58      -0.76

> <Gold.Goldscore.Fitness>
31.5233

> <Gold.Goldscore.Internal.Vdw>
-0.5763

> <Gold.Goldscore.Internal.Torsion>
-0.7656

> <Gold.Goldscore.External.Vdw>
18.7082

> <Gold.Goldscore.Internal.HBond>
0.0000

> <Gold.Goldscore.External.HBond>
6.3829

> <Gold.Goldscore.Internal.Correction>
-0.7585

> <Gold.Goldscore.Hbonds>
donor molecule, donor type, donor heavy atom, donor atom, acceptor molecule, acceptor atom, score
      P1  H 19333 19370       L1     9  0.06
      L1  H    10    23       P1 27088  1.00

> <Gold.Goldscore.Internal.Vdw.Weighted>
-0.5763

> <Gold.Goldscore.Internal.Torsion.Weighted>
-0.7656

> <Gold.Goldscore.External.Vdw.Weighted>
25.7237

> <Gold.Goldscore.Internal.HBond.Weighted>
0.0000

> <Gold.Goldscore.External.HBond.Weighted>
6.3829

> <Gold.Goldscore.Internal.Correction.Weighted>
-0.7585

> <Gold.Rescore>
     Score     S(PLP)   S(hbond)     S(cho)   S(metal)  DE(clash)   DE(tors)     intcor
     23.12     -19.36       1.67       0.00       0.00       0.00       0.63       ----

> <Gold.PLP.Fitness>
23.1183

> <Gold.PLP.PLP>
-19.3617

> <Gold.PLP.part.hbond>
-3.0000

> <Gold.PLP.part.metal>
0.0000

> <Gold.PLP.part.buried>
-4.8470

> <Gold.PLP.part.nonpolar>
-11.5338

> <Gold.PLP.part.repulsive>
0.9032

> <Gold.PLP.ligand.clash>
0.0000

> <Gold.PLP.ligand.torsion>
0.6279

> <Gold.PLP.Chemscore.Hbond>
1.6708

> <Gold.PLP.Chemscore.CHOScore>
0.0000

> <Gold.PLP.Chemscore.Metal>
0.0000

> <Gold.Chemscore.Hbonds>
donor molecule, donor type, donor heavy atom, donor atom, acceptor molecule, acceptor atom, score
      L1  H    10    23       P1 27088  1.00
      P1  H 19333 19370       L1     9  0.82

> <Gold.PLP.Chemscore.Internal.Correction>
   9.000000E+99

