#       Name:                GA Fitting Points
#       Creating user name   hitesit
#       Creation time:       Sun Apr 16 22:56:21 2023


#       Fitting Points Used by GA Software.
#

@<TRIPOS>MOLECULE
GA Fitting Points
  5355    0    0
SMALL
NO_CHARGES


@<TRIPOS>ATOM
      1 ****       183.7500  16.5000  51.5000 Du        
      2 ****       184.0000  16.2500  51.5000 Du        
      3 ****       184.0000  16.2500  51.7500 Du        
      4 ****       184.0000  16.5000  51.2500 Du        
      5 ****       184.0000  16.5000  51.5000 Du        
      6 ****       184.0000  16.5000  51.7500 Du        
      7 ****       184.0000  16.7500  51.2500 Du        
      8 ****       184.0000  16.7500  51.5000 Du        
      9 ****       184.0000  17.0000  51.2500 Du        
     10 ****       184.2500  16.2500  51.2500 Du        
     11 ****       184.2500  16.2500  51.5000 Du        
     12 ****       184.2500  16.2500  51.7500 Du        
     13 ****       184.2500  16.5000  51.2500 Du        
     14 ****       184.2500  16.5000  51.5000 Du        
     15 ****       184.2500  16.5000  51.7500 Du        
     16 ****       184.2500  16.5000  52.0000 Du        
     17 ****       184.2500  16.7500  51.2500 Du        
     18 ****       184.2500  16.7500  51.5000 Du        
     19 ****       184.2500  16.7500  51.7500 Du        
     20 ****       184.2500  17.0000  51.0000 Du        
     21 ****       184.2500  17.0000  51.2500 Du        
     22 ****       184.2500  17.0000  51.5000 Du        
     23 ****       184.2500  17.2500  51.0000 Du        
     24 ****       184.2500  17.2500  51.2500 Du        
     25 ****       184.5000  16.0000  51.2500 Du        
     26 ****       184.5000  16.2500  51.2500 Du        
     27 ****       184.5000  16.2500  51.5000 Du        
     28 ****       184.5000  16.2500  51.7500 Du        
     29 ****       184.5000  16.5000  51.2500 Du        
     30 ****       184.5000  16.5000  51.5000 Du        
     31 ****       184.5000  16.5000  51.7500 Du        
     32 ****       184.5000  16.5000  52.0000 Du        
     33 ****       184.5000  16.7500  51.0000 Du        
     34 ****       184.5000  16.7500  51.2500 Du        
     35 ****       184.5000  16.7500  51.5000 Du        
     36 ****       184.5000  16.7500  51.7500 Du        
     37 ****       184.5000  16.7500  52.0000 Du        
     38 ****       184.5000  17.0000  51.0000 Du        
     39 ****       184.5000  17.0000  51.2500 Du        
     40 ****       184.5000  17.0000  51.5000 Du        
     41 ****       184.5000  17.0000  51.7500 Du        
     42 ****       184.5000  17.2500  51.0000 Du        
     43 ****       184.5000  17.2500  51.2500 Du        
     44 ****       184.5000  17.2500  51.5000 Du        
     45 ****       184.5000  17.5000  50.7500 Du        
     46 ****       184.5000  17.5000  51.0000 Du        
     47 ****       184.5000  17.5000  51.2500 Du        
     48 ****       184.5000  17.7500  50.7500 Du        
     49 ****       184.5000  17.7500  51.0000 Du        
     50 ****       184.7500  16.0000  51.2500 Du        
     51 ****       184.7500  16.0000  51.5000 Du        
     52 ****       184.7500  16.2500  51.0000 Du        
     53 ****       184.7500  16.2500  51.2500 Du        
     54 ****       184.7500  16.2500  51.5000 Du        
     55 ****       184.7500  16.2500  51.7500 Du        
     56 ****       184.7500  16.2500  52.0000 Du        
     57 ****       184.7500  16.5000  51.0000 Du        
     58 ****       184.7500  16.5000  51.2500 Du        
     59 ****       184.7500  16.5000  51.5000 Du        
     60 ****       184.7500  16.5000  51.7500 Du        
     61 ****       184.7500  16.5000  52.0000 Du        
     62 ****       184.7500  16.5000  52.2500 Du        
     63 ****       184.7500  16.7500  51.0000 Du        
     64 ****       184.7500  16.7500  51.2500 Du        
     65 ****       184.7500  16.7500  51.5000 Du        
     66 ****       184.7500  16.7500  51.7500 Du        
     67 ****       184.7500  16.7500  52.0000 Du        
     68 ****       184.7500  16.7500  52.2500 Du        
     69 ****       184.7500  17.0000  51.0000 Du        
     70 ****       184.7500  17.0000  51.2500 Du        
     71 ****       184.7500  17.0000  51.5000 Du        
     72 ****       184.7500  17.0000  51.7500 Du        
     73 ****       184.7500  17.0000  52.0000 Du        
     74 ****       184.7500  17.0000  52.2500 Du        
     75 ****       184.7500  17.2500  50.7500 Du        
     76 ****       184.7500  17.2500  51.0000 Du        
     77 ****       184.7500  17.2500  51.2500 Du        
     78 ****       184.7500  17.2500  51.5000 Du        
     79 ****       184.7500  17.2500  51.7500 Du        
     80 ****       184.7500  17.2500  52.0000 Du        
     81 ****       184.7500  17.5000  50.7500 Du        
     82 ****       184.7500  17.5000  51.0000 Du        
     83 ****       184.7500  17.5000  51.2500 Du        
     84 ****       184.7500  17.5000  51.5000 Du        
     85 ****       184.7500  17.7500  50.5000 Du        
     86 ****       184.7500  17.7500  50.7500 Du        
     87 ****       184.7500  17.7500  51.0000 Du        
     88 ****       184.7500  17.7500  51.2500 Du        
     89 ****       184.7500  18.0000  50.5000 Du        
     90 ****       184.7500  18.0000  50.7500 Du        
     91 ****       184.7500  18.0000  51.0000 Du        
     92 ****       185.0000  15.7500  51.0000 Du        
     93 ****       185.0000  15.7500  51.2500 Du        
     94 ****       185.0000  16.0000  51.0000 Du        
     95 ****       185.0000  16.0000  51.2500 Du        
     96 ****       185.0000  16.0000  51.5000 Du        
     97 ****       185.0000  16.0000  51.7500 Du        
     98 ****       185.0000  16.2500  51.0000 Du        
     99 ****       185.0000  16.2500  51.2500 Du        
    100 ****       185.0000  16.2500  51.5000 Du        
    101 ****       185.0000  16.2500  51.7500 Du        
    102 ****       185.0000  16.2500  52.0000 Du        
    103 ****       185.0000  16.5000  51.0000 Du        
    104 ****       185.0000  16.5000  51.2500 Du        
    105 ****       185.0000  16.5000  51.5000 Du        
    106 ****       185.0000  16.5000  51.7500 Du        
    107 ****       185.0000  16.5000  52.0000 Du        
    108 ****       185.0000  16.7500  50.7500 Du        
    109 ****       185.0000  16.7500  51.0000 Du        
    110 ****       185.0000  16.7500  51.2500 Du        
    111 ****       185.0000  16.7500  51.5000 Du        
    112 ****       185.0000  16.7500  51.7500 Du        
    113 ****       185.0000  16.7500  52.0000 Du        
    114 ****       185.0000  16.7500  52.2500 Du        
    115 ****       185.0000  17.0000  50.7500 Du        
    116 ****       185.0000  17.0000  51.0000 Du        
    117 ****       185.0000  17.0000  51.2500 Du        
    118 ****       185.0000  17.0000  51.5000 Du        
    119 ****       185.0000  17.0000  51.7500 Du        
    120 ****       185.0000  17.0000  52.0000 Du        
    121 ****       185.0000  17.0000  52.2500 Du        
    122 ****       185.0000  17.2500  50.7500 Du        
    123 ****       185.0000  17.2500  51.0000 Du        
    124 ****       185.0000  17.2500  51.2500 Du        
    125 ****       185.0000  17.2500  51.5000 Du        
    126 ****       185.0000  17.2500  51.7500 Du        
    127 ****       185.0000  17.2500  52.0000 Du        
    128 ****       185.0000  17.2500  52.2500 Du        
    129 ****       185.0000  17.5000  50.5000 Du        
    130 ****       185.0000  17.5000  50.7500 Du        
    131 ****       185.0000  17.5000  51.0000 Du        
    132 ****       185.0000  17.5000  51.2500 Du        
    133 ****       185.0000  17.5000  51.5000 Du        
    134 ****       185.0000  17.5000  51.7500 Du        
    135 ****       185.0000  17.5000  52.0000 Du        
    136 ****       185.0000  17.7500  50.2500 Du        
    137 ****       185.0000  17.7500  50.5000 Du        
    138 ****       185.0000  17.7500  50.7500 Du        
    139 ****       185.0000  17.7500  51.0000 Du        
    140 ****       185.0000  17.7500  51.2500 Du        
    141 ****       185.0000  17.7500  51.5000 Du        
    142 ****       185.0000  18.0000  50.2500 Du        
    143 ****       185.0000  18.0000  50.5000 Du        
    144 ****       185.0000  18.0000  50.7500 Du        
    145 ****       185.0000  18.0000  51.0000 Du        
    146 ****       185.0000  18.0000  51.2500 Du        
    147 ****       185.0000  18.2500  50.0000 Du        
    148 ****       185.0000  18.2500  50.2500 Du        
    149 ****       185.0000  18.2500  50.5000 Du        
    150 ****       185.0000  18.2500  50.7500 Du        
    151 ****       185.0000  18.2500  51.0000 Du        
    152 ****       185.2500  14.0000  50.0000 Du        
    153 ****       185.2500  14.0000  50.2500 Du        
    154 ****       185.2500  14.2500  50.2500 Du        
    155 ****       185.2500  15.5000  51.0000 Du        
    156 ****       185.2500  15.7500  51.0000 Du        
    157 ****       185.2500  15.7500  51.2500 Du        
    158 ****       185.2500  16.0000  51.0000 Du        
    159 ****       185.2500  16.0000  51.2500 Du        
    160 ****       185.2500  16.0000  51.5000 Du        
    161 ****       185.2500  16.0000  51.7500 Du        
    162 ****       185.2500  16.2500  50.7500 Du        
    163 ****       185.2500  16.2500  51.0000 Du        
    164 ****       185.2500  16.2500  51.2500 Du        
    165 ****       185.2500  16.2500  51.5000 Du        
    166 ****       185.2500  16.2500  51.7500 Du        
    167 ****       185.2500  16.2500  52.0000 Du        
    168 ****       185.2500  16.5000  50.7500 Du        
    169 ****       185.2500  16.5000  51.0000 Du        
    170 ****       185.2500  16.5000  51.2500 Du        
    171 ****       185.2500  16.5000  51.5000 Du        
    172 ****       185.2500  16.5000  51.7500 Du        
    173 ****       185.2500  16.5000  52.0000 Du        
    174 ****       185.2500  16.7500  50.7500 Du        
    175 ****       185.2500  16.7500  51.0000 Du        
    176 ****       185.2500  16.7500  51.2500 Du        
    177 ****       185.2500  16.7500  51.5000 Du        
    178 ****       185.2500  16.7500  51.7500 Du        
    179 ****       185.2500  16.7500  52.0000 Du        
    180 ****       185.2500  16.7500  52.2500 Du        
    181 ****       185.2500  17.0000  50.5000 Du        
    182 ****       185.2500  17.0000  50.7500 Du        
    183 ****       185.2500  17.0000  51.0000 Du        
    184 ****       185.2500  17.0000  51.2500 Du        
    185 ****       185.2500  17.0000  51.5000 Du        
    186 ****       185.2500  17.0000  51.7500 Du        
    187 ****       185.2500  17.0000  52.0000 Du        
    188 ****       185.2500  17.0000  52.2500 Du        
    189 ****       185.2500  17.2500  50.5000 Du        
    190 ****       185.2500  17.2500  50.7500 Du        
    191 ****       185.2500  17.2500  51.0000 Du        
    192 ****       185.2500  17.2500  51.2500 Du        
    193 ****       185.2500  17.2500  51.5000 Du        
    194 ****       185.2500  17.2500  51.7500 Du        
    195 ****       185.2500  17.2500  52.0000 Du        
    196 ****       185.2500  17.2500  52.2500 Du        
    197 ****       185.2500  17.2500  52.5000 Du        
    198 ****       185.2500  17.5000  50.5000 Du        
    199 ****       185.2500  17.5000  50.7500 Du        
    200 ****       185.2500  17.5000  51.0000 Du        
    201 ****       185.2500  17.5000  51.2500 Du        
    202 ****       185.2500  17.5000  51.5000 Du        
    203 ****       185.2500  17.5000  51.7500 Du        
    204 ****       185.2500  17.5000  52.0000 Du        
    205 ****       185.2500  17.5000  52.2500 Du        
    206 ****       185.2500  17.7500  50.2500 Du        
    207 ****       185.2500  17.7500  50.5000 Du        
    208 ****       185.2500  17.7500  50.7500 Du        
    209 ****       185.2500  17.7500  51.0000 Du        
    210 ****       185.2500  17.7500  51.2500 Du        
    211 ****       185.2500  17.7500  51.5000 Du        
    212 ****       185.2500  17.7500  51.7500 Du        
    213 ****       185.2500  17.7500  52.0000 Du        
    214 ****       185.2500  17.7500  52.2500 Du        
    215 ****       185.2500  18.0000  50.0000 Du        
    216 ****       185.2500  18.0000  50.2500 Du        
    217 ****       185.2500  18.0000  50.5000 Du        
    218 ****       185.2500  18.0000  50.7500 Du        
    219 ****       185.2500  18.0000  51.0000 Du        
    220 ****       185.2500  18.0000  51.2500 Du        
    221 ****       185.2500  18.0000  51.5000 Du        
    222 ****       185.2500  18.0000  51.7500 Du        
    223 ****       185.2500  18.2500  50.0000 Du        
    224 ****       185.2500  18.2500  50.2500 Du        
    225 ****       185.2500  18.2500  50.5000 Du        
    226 ****       185.2500  18.2500  50.7500 Du        
    227 ****       185.2500  18.2500  51.0000 Du        
    228 ****       185.2500  18.2500  51.2500 Du        
    229 ****       185.2500  18.2500  51.5000 Du        
    230 ****       185.2500  18.5000  50.5000 Du        
    231 ****       185.2500  18.5000  50.7500 Du        
    232 ****       185.5000  13.7500  49.7500 Du        
    233 ****       185.5000  13.7500  50.0000 Du        
    234 ****       185.5000  13.7500  50.2500 Du        
    235 ****       185.5000  14.0000  49.7500 Du        
    236 ****       185.5000  14.0000  50.0000 Du        
    237 ****       185.5000  14.0000  50.2500 Du        
    238 ****       185.5000  14.0000  50.5000 Du        
    239 ****       185.5000  14.2500  50.0000 Du        
    240 ****       185.5000  14.2500  50.2500 Du        
    241 ****       185.5000  14.2500  50.5000 Du        
    242 ****       185.5000  14.5000  50.2500 Du        
    243 ****       185.5000  14.5000  50.5000 Du        
    244 ****       185.5000  14.7500  50.5000 Du        
    245 ****       185.5000  15.0000  50.5000 Du        
    246 ****       185.5000  15.0000  50.7500 Du        
    247 ****       185.5000  15.2500  50.7500 Du        
    248 ****       185.5000  15.2500  51.0000 Du        
    249 ****       185.5000  15.5000  50.7500 Du        
    250 ****       185.5000  15.5000  51.0000 Du        
    251 ****       185.5000  15.7500  50.7500 Du        
    252 ****       185.5000  15.7500  51.0000 Du        
    253 ****       185.5000  15.7500  51.2500 Du        
    254 ****       185.5000  16.0000  50.7500 Du        
    255 ****       185.5000  16.0000  51.0000 Du        
    256 ****       185.5000  16.0000  51.2500 Du        
    257 ****       185.5000  16.0000  51.5000 Du        
    258 ****       185.5000  16.2500  50.7500 Du        
    259 ****       185.5000  16.2500  51.0000 Du        
    260 ****       185.5000  16.2500  51.2500 Du        
    261 ****       185.5000  16.2500  51.5000 Du        
    262 ****       185.5000  16.2500  51.7500 Du        
    263 ****       185.5000  16.5000  50.7500 Du        
    264 ****       185.5000  16.5000  51.0000 Du        
    265 ****       185.5000  16.5000  51.2500 Du        
    266 ****       185.5000  16.5000  51.5000 Du        
    267 ****       185.5000  16.5000  51.7500 Du        
    268 ****       185.5000  16.5000  52.0000 Du        
    269 ****       185.5000  16.7500  50.7500 Du        
    270 ****       185.5000  16.7500  51.0000 Du        
    271 ****       185.5000  16.7500  51.2500 Du        
    272 ****       185.5000  16.7500  51.5000 Du        
    273 ****       185.5000  16.7500  51.7500 Du        
    274 ****       185.5000  16.7500  52.0000 Du        
    275 ****       185.5000  17.0000  50.7500 Du        
    276 ****       185.5000  17.0000  51.0000 Du        
    277 ****       185.5000  17.0000  51.2500 Du        
    278 ****       185.5000  17.0000  51.5000 Du        
    279 ****       185.5000  17.0000  51.7500 Du        
    280 ****       185.5000  17.0000  52.0000 Du        
    281 ****       185.5000  17.0000  52.2500 Du        
    282 ****       185.5000  17.2500  50.5000 Du        
    283 ****       185.5000  17.2500  50.7500 Du        
    284 ****       185.5000  17.2500  51.0000 Du        
    285 ****       185.5000  17.2500  51.2500 Du        
    286 ****       185.5000  17.2500  51.5000 Du        
    287 ****       185.5000  17.2500  51.7500 Du        
    288 ****       185.5000  17.2500  52.0000 Du        
    289 ****       185.5000  17.2500  52.2500 Du        
    290 ****       185.5000  17.2500  52.5000 Du        
    291 ****       185.5000  17.5000  50.5000 Du        
    292 ****       185.5000  17.5000  50.7500 Du        
    293 ****       185.5000  17.5000  51.0000 Du        
    294 ****       185.5000  17.5000  51.2500 Du        
    295 ****       185.5000  17.5000  51.5000 Du        
    296 ****       185.5000  17.5000  51.7500 Du        
    297 ****       185.5000  17.5000  52.0000 Du        
    298 ****       185.5000  17.5000  52.2500 Du        
    299 ****       185.5000  17.5000  52.5000 Du        
    300 ****       185.5000  17.7500  50.2500 Du        
    301 ****       185.5000  17.7500  50.5000 Du        
    302 ****       185.5000  17.7500  50.7500 Du        
    303 ****       185.5000  17.7500  51.0000 Du        
    304 ****       185.5000  17.7500  51.2500 Du        
    305 ****       185.5000  17.7500  51.5000 Du        
    306 ****       185.5000  17.7500  51.7500 Du        
    307 ****       185.5000  17.7500  52.0000 Du        
    308 ****       185.5000  17.7500  52.2500 Du        
    309 ****       185.5000  17.7500  52.5000 Du        
    310 ****       185.5000  18.0000  50.0000 Du        
    311 ****       185.5000  18.0000  50.2500 Du        
    312 ****       185.5000  18.0000  50.5000 Du        
    313 ****       185.5000  18.0000  50.7500 Du        
    314 ****       185.5000  18.0000  51.0000 Du        
    315 ****       185.5000  18.0000  51.2500 Du        
    316 ****       185.5000  18.0000  51.5000 Du        
    317 ****       185.5000  18.0000  51.7500 Du        
    318 ****       185.5000  18.0000  52.0000 Du        
    319 ****       185.5000  18.0000  52.2500 Du        
    320 ****       185.5000  18.0000  52.5000 Du        
    321 ****       185.5000  18.2500  50.0000 Du        
    322 ****       185.5000  18.2500  50.2500 Du        
    323 ****       185.5000  18.2500  50.5000 Du        
    324 ****       185.5000  18.2500  50.7500 Du        
    325 ****       185.5000  18.2500  51.0000 Du        
    326 ****       185.5000  18.2500  51.2500 Du        
    327 ****       185.5000  18.2500  51.5000 Du        
    328 ****       185.5000  18.2500  51.7500 Du        
    329 ****       185.5000  18.2500  52.0000 Du        
    330 ****       185.5000  18.2500  52.2500 Du        
    331 ****       185.5000  18.5000  50.5000 Du        
    332 ****       185.5000  18.5000  50.7500 Du        
    333 ****       185.5000  18.5000  51.0000 Du        
    334 ****       185.5000  18.5000  51.2500 Du        
    335 ****       185.5000  18.5000  51.5000 Du        
    336 ****       185.5000  18.5000  51.7500 Du        
    337 ****       185.5000  18.7500  51.0000 Du        
    338 ****       185.5000  18.7500  51.2500 Du        
    339 ****       185.7500  13.5000  49.2500 Du        
    340 ****       185.7500  13.5000  49.5000 Du        
    341 ****       185.7500  13.5000  49.7500 Du        
    342 ****       185.7500  13.7500  49.2500 Du        
    343 ****       185.7500  13.7500  49.5000 Du        
    344 ****       185.7500  13.7500  49.7500 Du        
    345 ****       185.7500  13.7500  50.0000 Du        
    346 ****       185.7500  13.7500  50.2500 Du        
    347 ****       185.7500  13.7500  50.5000 Du        
    348 ****       185.7500  14.0000  49.5000 Du        
    349 ****       185.7500  14.0000  49.7500 Du        
    350 ****       185.7500  14.0000  50.0000 Du        
    351 ****       185.7500  14.0000  50.2500 Du        
    352 ****       185.7500  14.0000  50.5000 Du        
    353 ****       185.7500  14.2500  49.5000 Du        
    354 ****       185.7500  14.2500  49.7500 Du        
    355 ****       185.7500  14.2500  50.0000 Du        
    356 ****       185.7500  14.2500  50.2500 Du        
    357 ****       185.7500  14.2500  50.5000 Du        
    358 ****       185.7500  14.5000  50.0000 Du        
    359 ****       185.7500  14.5000  50.2500 Du        
    360 ****       185.7500  14.5000  50.5000 Du        
    361 ****       185.7500  14.5000  50.7500 Du        
    362 ****       185.7500  14.7500  50.0000 Du        
    363 ****       185.7500  14.7500  50.2500 Du        
    364 ****       185.7500  14.7500  50.5000 Du        
    365 ****       185.7500  14.7500  50.7500 Du        
    366 ****       185.7500  15.0000  50.2500 Du        
    367 ****       185.7500  15.0000  50.5000 Du        
    368 ****       185.7500  15.0000  50.7500 Du        
    369 ****       185.7500  15.2500  50.5000 Du        
    370 ****       185.7500  15.2500  50.7500 Du        
    371 ****       185.7500  15.2500  51.0000 Du        
    372 ****       185.7500  15.5000  50.5000 Du        
    373 ****       185.7500  15.5000  50.7500 Du        
    374 ****       185.7500  15.5000  51.0000 Du        
    375 ****       185.7500  15.7500  50.5000 Du        
    376 ****       185.7500  15.7500  50.7500 Du        
    377 ****       185.7500  15.7500  51.0000 Du        
    378 ****       185.7500  15.7500  51.2500 Du        
    379 ****       185.7500  16.0000  50.5000 Du        
    380 ****       185.7500  16.0000  50.7500 Du        
    381 ****       185.7500  16.0000  51.0000 Du        
    382 ****       185.7500  16.0000  51.2500 Du        
    383 ****       185.7500  16.0000  51.5000 Du        
    384 ****       185.7500  16.2500  50.5000 Du        
    385 ****       185.7500  16.2500  50.7500 Du        
    386 ****       185.7500  16.2500  51.0000 Du        
    387 ****       185.7500  16.2500  51.2500 Du        
    388 ****       185.7500  16.2500  51.5000 Du        
    389 ****       185.7500  16.2500  51.7500 Du        
    390 ****       185.7500  16.5000  50.7500 Du        
    391 ****       185.7500  16.5000  51.0000 Du        
    392 ****       185.7500  16.5000  51.2500 Du        
    393 ****       185.7500  16.5000  51.5000 Du        
    394 ****       185.7500  16.5000  51.7500 Du        
    395 ****       185.7500  16.5000  52.0000 Du        
    396 ****       185.7500  16.7500  50.5000 Du        
    397 ****       185.7500  16.7500  50.7500 Du        
    398 ****       185.7500  16.7500  51.0000 Du        
    399 ****       185.7500  16.7500  51.2500 Du        
    400 ****       185.7500  16.7500  51.5000 Du        
    401 ****       185.7500  16.7500  51.7500 Du        
    402 ****       185.7500  16.7500  52.0000 Du        
    403 ****       185.7500  17.0000  50.5000 Du        
    404 ****       185.7500  17.0000  50.7500 Du        
    405 ****       185.7500  17.0000  51.0000 Du        
    406 ****       185.7500  17.0000  51.2500 Du        
    407 ****       185.7500  17.0000  51.5000 Du        
    408 ****       185.7500  17.0000  51.7500 Du        
    409 ****       185.7500  17.0000  52.0000 Du        
    410 ****       185.7500  17.0000  52.2500 Du        
    411 ****       185.7500  17.2500  50.5000 Du        
    412 ****       185.7500  17.2500  50.7500 Du        
    413 ****       185.7500  17.2500  51.0000 Du        
    414 ****       185.7500  17.2500  51.2500 Du        
    415 ****       185.7500  17.2500  51.5000 Du        
    416 ****       185.7500  17.2500  51.7500 Du        
    417 ****       185.7500  17.2500  52.0000 Du        
    418 ****       185.7500  17.2500  52.2500 Du        
    419 ****       185.7500  17.2500  52.5000 Du        
    420 ****       185.7500  17.5000  50.2500 Du        
    421 ****       185.7500  17.5000  50.5000 Du        
    422 ****       185.7500  17.5000  50.7500 Du        
    423 ****       185.7500  17.5000  51.0000 Du        
    424 ****       185.7500  17.5000  51.2500 Du        
    425 ****       185.7500  17.5000  51.5000 Du        
    426 ****       185.7500  17.5000  51.7500 Du        
    427 ****       185.7500  17.5000  52.0000 Du        
    428 ****       185.7500  17.5000  52.2500 Du        
    429 ****       185.7500  17.5000  52.5000 Du        
    430 ****       185.7500  17.7500  50.0000 Du        
    431 ****       185.7500  17.7500  50.2500 Du        
    432 ****       185.7500  17.7500  50.5000 Du        
    433 ****       185.7500  17.7500  50.7500 Du        
    434 ****       185.7500  17.7500  51.0000 Du        
    435 ****       185.7500  17.7500  51.2500 Du        
    436 ****       185.7500  17.7500  51.5000 Du        
    437 ****       185.7500  17.7500  51.7500 Du        
    438 ****       185.7500  17.7500  52.0000 Du        
    439 ****       185.7500  17.7500  52.2500 Du        
    440 ****       185.7500  17.7500  52.5000 Du        
    441 ****       185.7500  17.7500  52.7500 Du        
    442 ****       185.7500  18.0000  45.2500 Du        
    443 ****       185.7500  18.0000  45.5000 Du        
    444 ****       185.7500  18.0000  50.0000 Du        
    445 ****       185.7500  18.0000  50.2500 Du        
    446 ****       185.7500  18.0000  50.5000 Du        
    447 ****       185.7500  18.0000  50.7500 Du        
    448 ****       185.7500  18.0000  51.0000 Du        
    449 ****       185.7500  18.0000  51.2500 Du        
    450 ****       185.7500  18.0000  51.5000 Du        
    451 ****       185.7500  18.0000  51.7500 Du        
    452 ****       185.7500  18.0000  52.0000 Du        
    453 ****       185.7500  18.0000  52.2500 Du        
    454 ****       185.7500  18.0000  52.5000 Du        
    455 ****       185.7500  18.0000  52.7500 Du        
    456 ****       185.7500  18.0000  53.0000 Du        
    457 ****       185.7500  18.2500  45.5000 Du        
    458 ****       185.7500  18.2500  45.7500 Du        
    459 ****       185.7500  18.2500  50.0000 Du        
    460 ****       185.7500  18.2500  50.2500 Du        
    461 ****       185.7500  18.2500  50.5000 Du        
    462 ****       185.7500  18.2500  50.7500 Du        
    463 ****       185.7500  18.2500  51.0000 Du        
    464 ****       185.7500  18.2500  51.2500 Du        
    465 ****       185.7500  18.2500  51.5000 Du        
    466 ****       185.7500  18.2500  51.7500 Du        
    467 ****       185.7500  18.2500  52.0000 Du        
    468 ****       185.7500  18.2500  52.2500 Du        
    469 ****       185.7500  18.2500  52.5000 Du        
    470 ****       185.7500  18.2500  52.7500 Du        
    471 ****       185.7500  18.5000  50.5000 Du        
    472 ****       185.7500  18.5000  50.7500 Du        
    473 ****       185.7500  18.5000  51.0000 Du        
    474 ****       185.7500  18.5000  51.2500 Du        
    475 ****       185.7500  18.5000  51.5000 Du        
    476 ****       185.7500  18.5000  51.7500 Du        
    477 ****       185.7500  18.5000  52.0000 Du        
    478 ****       185.7500  18.5000  52.2500 Du        
    479 ****       185.7500  18.5000  52.5000 Du        
    480 ****       185.7500  18.5000  52.7500 Du        
    481 ****       185.7500  18.7500  50.5000 Du        
    482 ****       185.7500  18.7500  50.7500 Du        
    483 ****       185.7500  18.7500  51.0000 Du        
    484 ****       185.7500  18.7500  51.2500 Du        
    485 ****       185.7500  18.7500  51.5000 Du        
    486 ****       185.7500  18.7500  51.7500 Du        
    487 ****       185.7500  18.7500  52.0000 Du        
    488 ****       185.7500  18.7500  52.2500 Du        
    489 ****       185.7500  18.7500  52.5000 Du        
    490 ****       185.7500  19.0000  50.5000 Du        
    491 ****       185.7500  19.0000  50.7500 Du        
    492 ****       185.7500  19.0000  51.0000 Du        
    493 ****       185.7500  19.0000  51.2500 Du        
    494 ****       185.7500  19.0000  51.5000 Du        
    495 ****       185.7500  19.0000  51.7500 Du        
    496 ****       185.7500  19.0000  52.0000 Du        
    497 ****       185.7500  19.0000  52.2500 Du        
    498 ****       185.7500  19.2500  51.0000 Du        
    499 ****       185.7500  19.2500  51.2500 Du        
    500 ****       185.7500  19.2500  51.5000 Du        
    501 ****       185.7500  19.2500  51.7500 Du        
    502 ****       185.7500  19.2500  52.0000 Du        
    503 ****       186.0000  13.2500  49.2500 Du        
    504 ****       186.0000  13.5000  49.0000 Du        
    505 ****       186.0000  13.5000  49.2500 Du        
    506 ****       186.0000  13.5000  49.5000 Du        
    507 ****       186.0000  13.5000  49.7500 Du        
    508 ****       186.0000  13.5000  50.0000 Du        
    509 ****       186.0000  13.5000  50.2500 Du        
    510 ****       186.0000  13.7500  49.0000 Du        
    511 ****       186.0000  13.7500  49.2500 Du        
    512 ****       186.0000  13.7500  49.5000 Du        
    513 ****       186.0000  13.7500  49.7500 Du        
    514 ****       186.0000  13.7500  50.0000 Du        
    515 ****       186.0000  13.7500  50.2500 Du        
    516 ****       186.0000  13.7500  50.5000 Du        
    517 ****       186.0000  14.0000  49.0000 Du        
    518 ****       186.0000  14.0000  49.2500 Du        
    519 ****       186.0000  14.0000  49.5000 Du        
    520 ****       186.0000  14.0000  49.7500 Du        
    521 ****       186.0000  14.0000  50.0000 Du        
    522 ****       186.0000  14.0000  50.2500 Du        
    523 ****       186.0000  14.0000  50.5000 Du        
    524 ****       186.0000  14.2500  49.2500 Du        
    525 ****       186.0000  14.2500  49.5000 Du        
    526 ****       186.0000  14.2500  49.7500 Du        
    527 ****       186.0000  14.2500  50.0000 Du        
    528 ****       186.0000  14.2500  50.2500 Du        
    529 ****       186.0000  14.2500  50.5000 Du        
    530 ****       186.0000  14.5000  49.5000 Du        
    531 ****       186.0000  14.5000  49.7500 Du        
    532 ****       186.0000  14.5000  50.0000 Du        
    533 ****       186.0000  14.5000  50.2500 Du        
    534 ****       186.0000  14.5000  50.5000 Du        
    535 ****       186.0000  14.7500  49.7500 Du        
    536 ****       186.0000  14.7500  50.0000 Du        
    537 ****       186.0000  14.7500  50.2500 Du        
    538 ****       186.0000  14.7500  50.5000 Du        
    539 ****       186.0000  14.7500  50.7500 Du        
    540 ****       186.0000  15.0000  50.0000 Du        
    541 ****       186.0000  15.0000  50.2500 Du        
    542 ****       186.0000  15.0000  50.5000 Du        
    543 ****       186.0000  15.0000  50.7500 Du        
    544 ****       186.0000  15.2500  50.0000 Du        
    545 ****       186.0000  15.2500  50.2500 Du        
    546 ****       186.0000  15.2500  50.5000 Du        
    547 ****       186.0000  15.2500  50.7500 Du        
    548 ****       186.0000  15.2500  51.0000 Du        
    549 ****       186.0000  15.5000  50.2500 Du        
    550 ****       186.0000  15.5000  50.5000 Du        
    551 ****       186.0000  15.5000  50.7500 Du        
    552 ****       186.0000  15.5000  51.0000 Du        
    553 ****       186.0000  15.7500  50.2500 Du        
    554 ****       186.0000  15.7500  50.5000 Du        
    555 ****       186.0000  15.7500  50.7500 Du        
    556 ****       186.0000  15.7500  51.0000 Du        
    557 ****       186.0000  15.7500  51.2500 Du        
    558 ****       186.0000  16.0000  50.2500 Du        
    559 ****       186.0000  16.0000  50.5000 Du        
    560 ****       186.0000  16.0000  50.7500 Du        
    561 ****       186.0000  16.0000  51.0000 Du        
    562 ****       186.0000  16.0000  51.2500 Du        
    563 ****       186.0000  16.2500  50.2500 Du        
    564 ****       186.0000  16.2500  50.5000 Du        
    565 ****       186.0000  16.2500  50.7500 Du        
    566 ****       186.0000  16.2500  51.0000 Du        
    567 ****       186.0000  16.2500  51.2500 Du        
    568 ****       186.0000  16.2500  51.5000 Du        
    569 ****       186.0000  16.2500  51.7500 Du        
    570 ****       186.0000  16.5000  50.5000 Du        
    571 ****       186.0000  16.5000  50.7500 Du        
    572 ****       186.0000  16.5000  51.0000 Du        
    573 ****       186.0000  16.5000  51.2500 Du        
    574 ****       186.0000  16.5000  51.5000 Du        
    575 ****       186.0000  16.5000  51.7500 Du        
    576 ****       186.0000  16.7500  45.0000 Du        
    577 ****       186.0000  16.7500  45.2500 Du        
    578 ****       186.0000  16.7500  50.5000 Du        
    579 ****       186.0000  16.7500  50.7500 Du        
    580 ****       186.0000  16.7500  51.0000 Du        
    581 ****       186.0000  16.7500  51.2500 Du        
    582 ****       186.0000  16.7500  51.5000 Du        
    583 ****       186.0000  16.7500  51.7500 Du        
    584 ****       186.0000  16.7500  52.0000 Du        
    585 ****       186.0000  17.0000  45.0000 Du        
    586 ****       186.0000  17.0000  45.2500 Du        
    587 ****       186.0000  17.0000  50.5000 Du        
    588 ****       186.0000  17.0000  50.7500 Du        
    589 ****       186.0000  17.0000  51.0000 Du        
    590 ****       186.0000  17.0000  51.2500 Du        
    591 ****       186.0000  17.0000  51.5000 Du        
    592 ****       186.0000  17.0000  51.7500 Du        
    593 ****       186.0000  17.0000  52.0000 Du        
    594 ****       186.0000  17.0000  52.2500 Du        
    595 ****       186.0000  17.2500  45.0000 Du        
    596 ****       186.0000  17.2500  45.2500 Du        
    597 ****       186.0000  17.2500  45.5000 Du        
    598 ****       186.0000  17.2500  50.5000 Du        
    599 ****       186.0000  17.2500  50.7500 Du        
    600 ****       186.0000  17.2500  51.0000 Du        
    601 ****       186.0000  17.2500  51.2500 Du        
    602 ****       186.0000  17.2500  51.5000 Du        
    603 ****       186.0000  17.2500  51.7500 Du        
    604 ****       186.0000  17.2500  52.0000 Du        
    605 ****       186.0000  17.2500  52.2500 Du        
    606 ****       186.0000  17.2500  52.5000 Du        
    607 ****       186.0000  17.5000  45.2500 Du        
    608 ****       186.0000  17.5000  45.5000 Du        
    609 ****       186.0000  17.5000  50.2500 Du        
    610 ****       186.0000  17.5000  50.5000 Du        
    611 ****       186.0000  17.5000  50.7500 Du        
    612 ****       186.0000  17.5000  51.0000 Du        
    613 ****       186.0000  17.5000  51.2500 Du        
    614 ****       186.0000  17.5000  51.5000 Du        
    615 ****       186.0000  17.5000  51.7500 Du        
    616 ****       186.0000  17.5000  52.0000 Du        
    617 ****       186.0000  17.5000  52.2500 Du        
    618 ****       186.0000  17.5000  52.5000 Du        
    619 ****       186.0000  17.5000  52.7500 Du        
    620 ****       186.0000  17.7500  45.0000 Du        
    621 ****       186.0000  17.7500  45.2500 Du        
    622 ****       186.0000  17.7500  45.5000 Du        
    623 ****       186.0000  17.7500  45.7500 Du        
    624 ****       186.0000  17.7500  50.2500 Du        
    625 ****       186.0000  17.7500  50.5000 Du        
    626 ****       186.0000  17.7500  50.7500 Du        
    627 ****       186.0000  17.7500  51.0000 Du        
    628 ****       186.0000  17.7500  51.2500 Du        
    629 ****       186.0000  17.7500  51.5000 Du        
    630 ****       186.0000  17.7500  51.7500 Du        
    631 ****       186.0000  17.7500  52.0000 Du        
    632 ****       186.0000  17.7500  52.2500 Du        
    633 ****       186.0000  17.7500  52.5000 Du        
    634 ****       186.0000  17.7500  52.7500 Du        
    635 ****       186.0000  17.7500  53.0000 Du        
    636 ****       186.0000  18.0000  45.0000 Du        
    637 ****       186.0000  18.0000  45.2500 Du        
    638 ****       186.0000  18.0000  45.5000 Du        
    639 ****       186.0000  18.0000  45.7500 Du        
    640 ****       186.0000  18.0000  46.0000 Du        
    641 ****       186.0000  18.0000  50.5000 Du        
    642 ****       186.0000  18.0000  50.7500 Du        
    643 ****       186.0000  18.0000  51.0000 Du        
    644 ****       186.0000  18.0000  51.2500 Du        
    645 ****       186.0000  18.0000  51.5000 Du        
    646 ****       186.0000  18.0000  51.7500 Du        
    647 ****       186.0000  18.0000  52.0000 Du        
    648 ****       186.0000  18.0000  52.2500 Du        
    649 ****       186.0000  18.0000  52.5000 Du        
    650 ****       186.0000  18.0000  52.7500 Du        
    651 ****       186.0000  18.0000  53.0000 Du        
    652 ****       186.0000  18.2500  45.2500 Du        
    653 ****       186.0000  18.2500  45.5000 Du        
    654 ****       186.0000  18.2500  45.7500 Du        
    655 ****       186.0000  18.2500  46.0000 Du        
    656 ****       186.0000  18.2500  50.5000 Du        
    657 ****       186.0000  18.2500  50.7500 Du        
    658 ****       186.0000  18.2500  51.0000 Du        
    659 ****       186.0000  18.2500  51.2500 Du        
    660 ****       186.0000  18.2500  51.5000 Du        
    661 ****       186.0000  18.2500  51.7500 Du        
    662 ****       186.0000  18.2500  52.0000 Du        
    663 ****       186.0000  18.2500  52.2500 Du        
    664 ****       186.0000  18.2500  52.5000 Du        
    665 ****       186.0000  18.2500  52.7500 Du        
    666 ****       186.0000  18.2500  53.0000 Du        
    667 ****       186.0000  18.5000  50.5000 Du        
    668 ****       186.0000  18.5000  50.7500 Du        
    669 ****       186.0000  18.5000  51.0000 Du        
    670 ****       186.0000  18.5000  51.2500 Du        
    671 ****       186.0000  18.5000  51.5000 Du        
    672 ****       186.0000  18.5000  51.7500 Du        
    673 ****       186.0000  18.5000  52.0000 Du        
    674 ****       186.0000  18.5000  52.2500 Du        
    675 ****       186.0000  18.5000  52.5000 Du        
    676 ****       186.0000  18.5000  52.7500 Du        
    677 ****       186.0000  18.5000  53.0000 Du        
    678 ****       186.0000  18.7500  50.5000 Du        
    679 ****       186.0000  18.7500  50.7500 Du        
    680 ****       186.0000  18.7500  51.0000 Du        
    681 ****       186.0000  18.7500  51.2500 Du        
    682 ****       186.0000  18.7500  51.5000 Du        
    683 ****       186.0000  18.7500  51.7500 Du        
    684 ****       186.0000  18.7500  52.0000 Du        
    685 ****       186.0000  18.7500  52.2500 Du        
    686 ****       186.0000  18.7500  52.5000 Du        
    687 ****       186.0000  18.7500  52.7500 Du        
    688 ****       186.0000  19.0000  50.5000 Du        
    689 ****       186.0000  19.0000  50.7500 Du        
    690 ****       186.0000  19.0000  51.0000 Du        
    691 ****       186.0000  19.0000  51.2500 Du        
    692 ****       186.0000  19.0000  51.5000 Du        
    693 ****       186.0000  19.0000  51.7500 Du        
    694 ****       186.0000  19.0000  52.0000 Du        
    695 ****       186.0000  19.0000  52.2500 Du        
    696 ****       186.0000  19.0000  52.5000 Du        
    697 ****       186.0000  19.2500  50.5000 Du        
    698 ****       186.0000  19.2500  50.7500 Du        
    699 ****       186.0000  19.2500  51.0000 Du        
    700 ****       186.0000  19.2500  51.2500 Du        
    701 ****       186.0000  19.2500  51.5000 Du        
    702 ****       186.0000  19.2500  51.7500 Du        
    703 ****       186.0000  19.2500  52.0000 Du        
    704 ****       186.0000  19.2500  52.2500 Du        
    705 ****       186.0000  19.2500  52.5000 Du        
    706 ****       186.0000  19.5000  50.5000 Du        
    707 ****       186.0000  19.5000  50.7500 Du        
    708 ****       186.0000  19.5000  51.0000 Du        
    709 ****       186.0000  19.5000  51.2500 Du        
    710 ****       186.0000  19.5000  51.5000 Du        
    711 ****       186.0000  19.5000  51.7500 Du        
    712 ****       186.0000  19.5000  52.0000 Du        
    713 ****       186.0000  19.5000  52.2500 Du        
    714 ****       186.0000  19.7500  50.5000 Du        
    715 ****       186.0000  19.7500  50.7500 Du        
    716 ****       186.0000  19.7500  51.0000 Du        
    717 ****       186.0000  19.7500  51.2500 Du        
    718 ****       186.0000  19.7500  51.5000 Du        
    719 ****       186.0000  19.7500  51.7500 Du        
    720 ****       186.0000  19.7500  52.0000 Du        
    721 ****       186.0000  19.7500  52.2500 Du        
    722 ****       186.0000  20.0000  50.5000 Du        
    723 ****       186.0000  20.0000  50.7500 Du        
    724 ****       186.0000  20.0000  51.0000 Du        
    725 ****       186.0000  20.0000  51.2500 Du        
    726 ****       186.0000  20.0000  51.5000 Du        
    727 ****       186.0000  20.0000  51.7500 Du        
    728 ****       186.0000  20.0000  52.0000 Du        
    729 ****       186.0000  20.2500  51.5000 Du        
    730 ****       186.0000  20.2500  51.7500 Du        
    731 ****       186.0000  23.2500  50.5000 Du        
    732 ****       186.0000  23.7500  50.5000 Du        
    733 ****       186.2500  13.2500  49.2500 Du        
    734 ****       186.2500  13.2500  49.5000 Du        
    735 ****       186.2500  13.2500  49.7500 Du        
    736 ****       186.2500  13.2500  50.0000 Du        
    737 ****       186.2500  13.5000  49.2500 Du        
    738 ****       186.2500  13.5000  49.5000 Du        
    739 ****       186.2500  13.5000  49.7500 Du        
    740 ****       186.2500  13.5000  50.0000 Du        
    741 ****       186.2500  13.5000  50.2500 Du        
    742 ****       186.2500  13.7500  49.0000 Du        
    743 ****       186.2500  13.7500  49.2500 Du        
    744 ****       186.2500  13.7500  49.5000 Du        
    745 ****       186.2500  13.7500  49.7500 Du        
    746 ****       186.2500  13.7500  50.0000 Du        
    747 ****       186.2500  13.7500  50.2500 Du        
    748 ****       186.2500  13.7500  50.5000 Du        
    749 ****       186.2500  14.0000  49.0000 Du        
    750 ****       186.2500  14.0000  49.2500 Du        
    751 ****       186.2500  14.0000  49.5000 Du        
    752 ****       186.2500  14.0000  49.7500 Du        
    753 ****       186.2500  14.0000  50.0000 Du        
    754 ****       186.2500  14.0000  50.2500 Du        
    755 ****       186.2500  14.0000  50.5000 Du        
    756 ****       186.2500  14.2500  49.0000 Du        
    757 ****       186.2500  14.2500  49.2500 Du        
    758 ****       186.2500  14.2500  49.5000 Du        
    759 ****       186.2500  14.2500  49.7500 Du        
    760 ****       186.2500  14.2500  50.0000 Du        
    761 ****       186.2500  14.2500  50.2500 Du        
    762 ****       186.2500  14.2500  50.5000 Du        
    763 ****       186.2500  14.5000  49.2500 Du        
    764 ****       186.2500  14.5000  49.5000 Du        
    765 ****       186.2500  14.5000  49.7500 Du        
    766 ****       186.2500  14.5000  50.0000 Du        
    767 ****       186.2500  14.5000  50.2500 Du        
    768 ****       186.2500  14.5000  50.5000 Du        
    769 ****       186.2500  14.7500  49.2500 Du        
    770 ****       186.2500  14.7500  49.5000 Du        
    771 ****       186.2500  14.7500  49.7500 Du        
    772 ****       186.2500  14.7500  50.0000 Du        
    773 ****       186.2500  14.7500  50.2500 Du        
    774 ****       186.2500  14.7500  50.5000 Du        
    775 ****       186.2500  15.0000  49.5000 Du        
    776 ****       186.2500  15.0000  49.7500 Du        
    777 ****       186.2500  15.0000  50.0000 Du        
    778 ****       186.2500  15.0000  50.2500 Du        
    779 ****       186.2500  15.0000  50.5000 Du        
    780 ****       186.2500  15.2500  49.7500 Du        
    781 ****       186.2500  15.2500  50.0000 Du        
    782 ****       186.2500  15.2500  50.2500 Du        
    783 ****       186.2500  15.2500  50.5000 Du        
    784 ****       186.2500  15.2500  50.7500 Du        
    785 ****       186.2500  15.5000  50.0000 Du        
    786 ****       186.2500  15.5000  50.2500 Du        
    787 ****       186.2500  15.5000  50.5000 Du        
    788 ****       186.2500  15.5000  50.7500 Du        
    789 ****       186.2500  15.7500  50.0000 Du        
    790 ****       186.2500  15.7500  50.2500 Du        
    791 ****       186.2500  15.7500  50.5000 Du        
    792 ****       186.2500  15.7500  50.7500 Du        
    793 ****       186.2500  15.7500  51.0000 Du        
    794 ****       186.2500  16.0000  50.2500 Du        
    795 ****       186.2500  16.0000  50.5000 Du        
    796 ****       186.2500  16.0000  50.7500 Du        
    797 ****       186.2500  16.0000  51.0000 Du        
    798 ****       186.2500  16.0000  51.2500 Du        
    799 ****       186.2500  16.2500  44.7500 Du        
    800 ****       186.2500  16.2500  45.0000 Du        
    801 ****       186.2500  16.2500  50.2500 Du        
    802 ****       186.2500  16.2500  50.5000 Du        
    803 ****       186.2500  16.2500  50.7500 Du        
    804 ****       186.2500  16.2500  51.0000 Du        
    805 ****       186.2500  16.2500  51.2500 Du        
    806 ****       186.2500  16.2500  51.5000 Du        
    807 ****       186.2500  16.5000  44.7500 Du        
    808 ****       186.2500  16.5000  45.0000 Du        
    809 ****       186.2500  16.5000  45.2500 Du        
    810 ****       186.2500  16.5000  50.5000 Du        
    811 ****       186.2500  16.5000  50.7500 Du        
    812 ****       186.2500  16.5000  51.0000 Du        
    813 ****       186.2500  16.5000  51.2500 Du        
    814 ****       186.2500  16.5000  51.5000 Du        
    815 ****       186.2500  16.5000  51.7500 Du        
    816 ****       186.2500  16.7500  44.7500 Du        
    817 ****       186.2500  16.7500  45.0000 Du        
    818 ****       186.2500  16.7500  45.2500 Du        
    819 ****       186.2500  16.7500  45.5000 Du        
    820 ****       186.2500  16.7500  50.7500 Du        
    821 ****       186.2500  16.7500  51.0000 Du        
    822 ****       186.2500  16.7500  51.2500 Du        
    823 ****       186.2500  16.7500  51.5000 Du        
    824 ****       186.2500  16.7500  51.7500 Du        
    825 ****       186.2500  16.7500  52.0000 Du        
    826 ****       186.2500  17.0000  44.7500 Du        
    827 ****       186.2500  17.0000  45.0000 Du        
    828 ****       186.2500  17.0000  45.2500 Du        
    829 ****       186.2500  17.0000  45.5000 Du        
    830 ****       186.2500  17.0000  50.7500 Du        
    831 ****       186.2500  17.0000  51.0000 Du        
    832 ****       186.2500  17.0000  51.2500 Du        
    833 ****       186.2500  17.0000  51.5000 Du        
    834 ****       186.2500  17.0000  51.7500 Du        
    835 ****       186.2500  17.0000  52.0000 Du        
    836 ****       186.2500  17.0000  52.2500 Du        
    837 ****       186.2500  17.2500  44.7500 Du        
    838 ****       186.2500  17.2500  45.0000 Du        
    839 ****       186.2500  17.2500  45.2500 Du        
    840 ****       186.2500  17.2500  45.5000 Du        
    841 ****       186.2500  17.2500  45.7500 Du        
    842 ****       186.2500  17.2500  50.7500 Du        
    843 ****       186.2500  17.2500  51.0000 Du        
    844 ****       186.2500  17.2500  51.2500 Du        
    845 ****       186.2500  17.2500  51.5000 Du        
    846 ****       186.2500  17.2500  51.7500 Du        
    847 ****       186.2500  17.2500  52.0000 Du        
    848 ****       186.2500  17.2500  52.2500 Du        
    849 ****       186.2500  17.2500  52.5000 Du        
    850 ****       186.2500  17.5000  45.0000 Du        
    851 ****       186.2500  17.5000  45.2500 Du        
    852 ****       186.2500  17.5000  45.5000 Du        
    853 ****       186.2500  17.5000  45.7500 Du        
    854 ****       186.2500  17.5000  50.7500 Du        
    855 ****       186.2500  17.5000  51.0000 Du        
    856 ****       186.2500  17.5000  51.2500 Du        
    857 ****       186.2500  17.5000  51.5000 Du        
    858 ****       186.2500  17.5000  51.7500 Du        
    859 ****       186.2500  17.5000  52.0000 Du        
    860 ****       186.2500  17.5000  52.2500 Du        
    861 ****       186.2500  17.5000  52.5000 Du        
    862 ****       186.2500  17.5000  52.7500 Du        
    863 ****       186.2500  17.7500  45.0000 Du        
    864 ****       186.2500  17.7500  45.2500 Du        
    865 ****       186.2500  17.7500  45.5000 Du        
    866 ****       186.2500  17.7500  45.7500 Du        
    867 ****       186.2500  17.7500  46.0000 Du        
    868 ****       186.2500  17.7500  50.5000 Du        
    869 ****       186.2500  17.7500  50.7500 Du        
    870 ****       186.2500  17.7500  51.0000 Du        
    871 ****       186.2500  17.7500  51.2500 Du        
    872 ****       186.2500  17.7500  51.5000 Du        
    873 ****       186.2500  17.7500  51.7500 Du        
    874 ****       186.2500  17.7500  52.0000 Du        
    875 ****       186.2500  17.7500  52.2500 Du        
    876 ****       186.2500  17.7500  52.5000 Du        
    877 ****       186.2500  17.7500  52.7500 Du        
    878 ****       186.2500  17.7500  53.0000 Du        
    879 ****       186.2500  18.0000  45.0000 Du        
    880 ****       186.2500  18.0000  45.2500 Du        
    881 ****       186.2500  18.0000  45.5000 Du        
    882 ****       186.2500  18.0000  45.7500 Du        
    883 ****       186.2500  18.0000  46.0000 Du        
    884 ****       186.2500  18.0000  50.5000 Du        
    885 ****       186.2500  18.0000  50.7500 Du        
    886 ****       186.2500  18.0000  51.0000 Du        
    887 ****       186.2500  18.0000  51.2500 Du        
    888 ****       186.2500  18.0000  51.5000 Du        
    889 ****       186.2500  18.0000  51.7500 Du        
    890 ****       186.2500  18.0000  52.0000 Du        
    891 ****       186.2500  18.0000  52.2500 Du        
    892 ****       186.2500  18.0000  52.5000 Du        
    893 ****       186.2500  18.0000  52.7500 Du        
    894 ****       186.2500  18.0000  53.0000 Du        
    895 ****       186.2500  18.2500  45.0000 Du        
    896 ****       186.2500  18.2500  45.2500 Du        
    897 ****       186.2500  18.2500  45.5000 Du        
    898 ****       186.2500  18.2500  45.7500 Du        
    899 ****       186.2500  18.2500  46.0000 Du        
    900 ****       186.2500  18.2500  50.5000 Du        
    901 ****       186.2500  18.2500  50.7500 Du        
    902 ****       186.2500  18.2500  51.0000 Du        
    903 ****       186.2500  18.2500  51.2500 Du        
    904 ****       186.2500  18.2500  51.5000 Du        
    905 ****       186.2500  18.2500  51.7500 Du        
    906 ****       186.2500  18.2500  52.0000 Du        
    907 ****       186.2500  18.2500  52.2500 Du        
    908 ****       186.2500  18.2500  52.5000 Du        
    909 ****       186.2500  18.2500  52.7500 Du        
    910 ****       186.2500  18.2500  53.0000 Du        
    911 ****       186.2500  18.5000  50.5000 Du        
    912 ****       186.2500  18.5000  50.7500 Du        
    913 ****       186.2500  18.5000  51.0000 Du        
    914 ****       186.2500  18.5000  51.2500 Du        
    915 ****       186.2500  18.5000  51.5000 Du        
    916 ****       186.2500  18.5000  51.7500 Du        
    917 ****       186.2500  18.5000  52.0000 Du        
    918 ****       186.2500  18.5000  52.2500 Du        
    919 ****       186.2500  18.5000  52.5000 Du        
    920 ****       186.2500  18.5000  52.7500 Du        
    921 ****       186.2500  18.5000  53.0000 Du        
    922 ****       186.2500  18.7500  50.5000 Du        
    923 ****       186.2500  18.7500  50.7500 Du        
    924 ****       186.2500  18.7500  51.0000 Du        
    925 ****       186.2500  18.7500  51.2500 Du        
    926 ****       186.2500  18.7500  51.5000 Du        
    927 ****       186.2500  18.7500  51.7500 Du        
    928 ****       186.2500  18.7500  52.0000 Du        
    929 ****       186.2500  18.7500  52.2500 Du        
    930 ****       186.2500  18.7500  52.5000 Du        
    931 ****       186.2500  18.7500  52.7500 Du        
    932 ****       186.2500  19.0000  50.5000 Du        
    933 ****       186.2500  19.0000  50.7500 Du        
    934 ****       186.2500  19.0000  51.0000 Du        
    935 ****       186.2500  19.0000  51.2500 Du        
    936 ****       186.2500  19.0000  51.5000 Du        
    937 ****       186.2500  19.0000  51.7500 Du        
    938 ****       186.2500  19.0000  52.0000 Du        
    939 ****       186.2500  19.0000  52.2500 Du        
    940 ****       186.2500  19.0000  52.5000 Du        
    941 ****       186.2500  19.0000  52.7500 Du        
    942 ****       186.2500  19.2500  50.5000 Du        
    943 ****       186.2500  19.2500  50.7500 Du        
    944 ****       186.2500  19.2500  51.0000 Du        
    945 ****       186.2500  19.2500  51.2500 Du        
    946 ****       186.2500  19.2500  51.5000 Du        
    947 ****       186.2500  19.2500  51.7500 Du        
    948 ****       186.2500  19.2500  52.0000 Du        
    949 ****       186.2500  19.2500  52.2500 Du        
    950 ****       186.2500  19.2500  52.5000 Du        
    951 ****       186.2500  19.5000  50.5000 Du        
    952 ****       186.2500  19.5000  50.7500 Du        
    953 ****       186.2500  19.5000  51.0000 Du        
    954 ****       186.2500  19.5000  51.2500 Du        
    955 ****       186.2500  19.5000  51.5000 Du        
    956 ****       186.2500  19.5000  51.7500 Du        
    957 ****       186.2500  19.5000  52.0000 Du        
    958 ****       186.2500  19.5000  52.2500 Du        
    959 ****       186.2500  19.7500  50.5000 Du        
    960 ****       186.2500  19.7500  50.7500 Du        
    961 ****       186.2500  19.7500  51.0000 Du        
    962 ****       186.2500  19.7500  51.2500 Du        
    963 ****       186.2500  19.7500  51.5000 Du        
    964 ****       186.2500  19.7500  51.7500 Du        
    965 ****       186.2500  19.7500  52.0000 Du        
    966 ****       186.2500  19.7500  52.2500 Du        
    967 ****       186.2500  20.0000  50.2500 Du        
    968 ****       186.2500  20.0000  50.5000 Du        
    969 ****       186.2500  20.0000  50.7500 Du        
    970 ****       186.2500  20.0000  51.0000 Du        
    971 ****       186.2500  20.0000  51.2500 Du        
    972 ****       186.2500  20.0000  51.5000 Du        
    973 ****       186.2500  20.0000  51.7500 Du        
    974 ****       186.2500  20.0000  52.0000 Du        
    975 ****       186.2500  20.0000  52.2500 Du        
    976 ****       186.2500  20.2500  50.5000 Du        
    977 ****       186.2500  20.2500  50.7500 Du        
    978 ****       186.2500  20.2500  51.0000 Du        
    979 ****       186.2500  20.2500  51.2500 Du        
    980 ****       186.2500  20.2500  51.5000 Du        
    981 ****       186.2500  20.2500  51.7500 Du        
    982 ****       186.2500  20.2500  52.0000 Du        
    983 ****       186.2500  20.5000  50.2500 Du        
    984 ****       186.2500  20.5000  50.5000 Du        
    985 ****       186.2500  20.5000  50.7500 Du        
    986 ****       186.2500  20.5000  51.0000 Du        
    987 ****       186.2500  20.5000  51.2500 Du        
    988 ****       186.2500  20.5000  51.5000 Du        
    989 ****       186.2500  20.5000  51.7500 Du        
    990 ****       186.2500  20.5000  52.0000 Du        
    991 ****       186.2500  20.7500  49.7500 Du        
    992 ****       186.2500  20.7500  50.2500 Du        
    993 ****       186.2500  20.7500  50.5000 Du        
    994 ****       186.2500  20.7500  50.7500 Du        
    995 ****       186.2500  20.7500  51.0000 Du        
    996 ****       186.2500  20.7500  51.2500 Du        
    997 ****       186.2500  20.7500  51.5000 Du        
    998 ****       186.2500  20.7500  51.7500 Du        
    999 ****       186.2500  21.0000  49.7500 Du        
   1000 ****       186.2500  21.0000  50.0000 Du        
   1001 ****       186.2500  21.0000  50.2500 Du        
   1002 ****       186.2500  21.0000  50.5000 Du        
   1003 ****       186.2500  21.0000  50.7500 Du        
   1004 ****       186.2500  21.0000  51.0000 Du        
   1005 ****       186.2500  21.0000  51.2500 Du        
   1006 ****       186.2500  21.0000  51.5000 Du        
   1007 ****       186.2500  21.0000  51.7500 Du        
   1008 ****       186.2500  21.2500  50.0000 Du        
   1009 ****       186.2500  21.2500  50.2500 Du        
   1010 ****       186.2500  21.2500  50.5000 Du        
   1011 ****       186.2500  21.2500  50.7500 Du        
   1012 ****       186.2500  21.2500  51.0000 Du        
   1013 ****       186.2500  21.2500  51.2500 Du        
   1014 ****       186.2500  21.2500  51.5000 Du        
   1015 ****       186.2500  21.2500  51.7500 Du        
   1016 ****       186.2500  21.5000  50.0000 Du        
   1017 ****       186.2500  21.5000  50.5000 Du        
   1018 ****       186.2500  21.5000  50.7500 Du        
   1019 ****       186.2500  21.5000  51.0000 Du        
   1020 ****       186.2500  21.5000  51.2500 Du        
   1021 ****       186.2500  21.5000  51.5000 Du        
   1022 ****       186.2500  21.7500  50.0000 Du        
   1023 ****       186.2500  21.7500  50.2500 Du        
   1024 ****       186.2500  21.7500  50.5000 Du        
   1025 ****       186.2500  21.7500  50.7500 Du        
   1026 ****       186.2500  21.7500  51.0000 Du        
   1027 ****       186.2500  21.7500  51.2500 Du        
   1028 ****       186.2500  21.7500  51.5000 Du        
   1029 ****       186.2500  22.0000  49.7500 Du        
   1030 ****       186.2500  22.0000  50.0000 Du        
   1031 ****       186.2500  22.0000  50.5000 Du        
   1032 ****       186.2500  22.0000  50.7500 Du        
   1033 ****       186.2500  22.0000  51.0000 Du        
   1034 ****       186.2500  22.0000  51.2500 Du        
   1035 ****       186.2500  22.0000  51.5000 Du        
   1036 ****       186.2500  22.2500  50.0000 Du        
   1037 ****       186.2500  22.2500  50.2500 Du        
   1038 ****       186.2500  22.2500  50.5000 Du        
   1039 ****       186.2500  22.2500  50.7500 Du        
   1040 ****       186.2500  22.2500  51.0000 Du        
   1041 ****       186.2500  22.2500  51.2500 Du        
   1042 ****       186.2500  22.5000  50.0000 Du        
   1043 ****       186.2500  22.5000  50.2500 Du        
   1044 ****       186.2500  22.5000  50.5000 Du        
   1045 ****       186.2500  22.5000  50.7500 Du        
   1046 ****       186.2500  22.5000  51.0000 Du        
   1047 ****       186.2500  22.7500  50.0000 Du        
   1048 ****       186.2500  22.7500  50.2500 Du        
   1049 ****       186.2500  22.7500  50.5000 Du        
   1050 ****       186.2500  22.7500  50.7500 Du        
   1051 ****       186.2500  22.7500  51.0000 Du        
   1052 ****       186.2500  23.0000  50.0000 Du        
   1053 ****       186.2500  23.0000  50.2500 Du        
   1054 ****       186.2500  23.0000  50.5000 Du        
   1055 ****       186.2500  23.0000  50.7500 Du        
   1056 ****       186.2500  23.2500  50.2500 Du        
   1057 ****       186.2500  23.2500  50.5000 Du        
   1058 ****       186.2500  23.2500  50.7500 Du        
   1059 ****       186.2500  23.5000  50.5000 Du        
   1060 ****       186.2500  23.7500  49.7500 Du        
   1061 ****       186.2500  23.7500  50.0000 Du        
   1062 ****       186.2500  23.7500  50.5000 Du        
   1063 ****       186.5000  13.2500  49.2500 Du        
   1064 ****       186.5000  13.2500  49.5000 Du        
   1065 ****       186.5000  13.2500  49.7500 Du        
   1066 ****       186.5000  13.2500  50.0000 Du        
   1067 ****       186.5000  13.2500  50.2500 Du        
   1068 ****       186.5000  13.5000  49.2500 Du        
   1069 ****       186.5000  13.5000  49.5000 Du        
   1070 ****       186.5000  13.5000  49.7500 Du        
   1071 ****       186.5000  13.5000  50.0000 Du        
   1072 ****       186.5000  13.5000  50.2500 Du        
   1073 ****       186.5000  13.7500  49.0000 Du        
   1074 ****       186.5000  13.7500  49.2500 Du        
   1075 ****       186.5000  13.7500  49.5000 Du        
   1076 ****       186.5000  13.7500  49.7500 Du        
   1077 ****       186.5000  13.7500  50.0000 Du        
   1078 ****       186.5000  13.7500  50.2500 Du        
   1079 ****       186.5000  14.0000  49.0000 Du        
   1080 ****       186.5000  14.0000  49.2500 Du        
   1081 ****       186.5000  14.0000  49.5000 Du        
   1082 ****       186.5000  14.0000  49.7500 Du        
   1083 ****       186.5000  14.0000  50.0000 Du        
   1084 ****       186.5000  14.0000  50.2500 Du        
   1085 ****       186.5000  14.2500  49.0000 Du        
   1086 ****       186.5000  14.2500  49.2500 Du        
   1087 ****       186.5000  14.2500  49.5000 Du        
   1088 ****       186.5000  14.2500  49.7500 Du        
   1089 ****       186.5000  14.2500  50.0000 Du        
   1090 ****       186.5000  14.2500  50.2500 Du        
   1091 ****       186.5000  14.5000  49.0000 Du        
   1092 ****       186.5000  14.5000  49.2500 Du        
   1093 ****       186.5000  14.5000  49.5000 Du        
   1094 ****       186.5000  14.5000  49.7500 Du        
   1095 ****       186.5000  14.5000  50.0000 Du        
   1096 ****       186.5000  14.5000  50.2500 Du        
   1097 ****       186.5000  14.7500  49.2500 Du        
   1098 ****       186.5000  14.7500  49.5000 Du        
   1099 ****       186.5000  14.7500  49.7500 Du        
   1100 ****       186.5000  14.7500  50.0000 Du        
   1101 ****       186.5000  14.7500  50.2500 Du        
   1102 ****       186.5000  15.0000  49.2500 Du        
   1103 ****       186.5000  15.0000  49.5000 Du        
   1104 ****       186.5000  15.0000  49.7500 Du        
   1105 ****       186.5000  15.0000  50.0000 Du        
   1106 ****       186.5000  15.0000  50.2500 Du        
   1107 ****       186.5000  15.0000  50.5000 Du        
   1108 ****       186.5000  15.2500  49.5000 Du        
   1109 ****       186.5000  15.2500  49.7500 Du        
   1110 ****       186.5000  15.2500  50.0000 Du        
   1111 ****       186.5000  15.2500  50.2500 Du        
   1112 ****       186.5000  15.2500  50.5000 Du        
   1113 ****       186.5000  15.5000  50.0000 Du        
   1114 ****       186.5000  15.5000  50.2500 Du        
   1115 ****       186.5000  15.5000  50.5000 Du        
   1116 ****       186.5000  15.7500  50.5000 Du        
   1117 ****       186.5000  15.7500  50.7500 Du        
   1118 ****       186.5000  16.0000  50.7500 Du        
   1119 ****       186.5000  16.2500  44.7500 Du        
   1120 ****       186.5000  16.2500  45.0000 Du        
   1121 ****       186.5000  16.2500  45.2500 Du        
   1122 ****       186.5000  16.2500  50.7500 Du        
   1123 ****       186.5000  16.2500  51.0000 Du        
   1124 ****       186.5000  16.5000  44.7500 Du        
   1125 ****       186.5000  16.5000  45.0000 Du        
   1126 ****       186.5000  16.5000  45.2500 Du        
   1127 ****       186.5000  16.5000  45.5000 Du        
   1128 ****       186.5000  16.7500  44.5000 Du        
   1129 ****       186.5000  16.7500  44.7500 Du        
   1130 ****       186.5000  16.7500  45.0000 Du        
   1131 ****       186.5000  16.7500  45.2500 Du        
   1132 ****       186.5000  16.7500  45.5000 Du        
   1133 ****       186.5000  16.7500  45.7500 Du        
   1134 ****       186.5000  16.7500  51.7500 Du        
   1135 ****       186.5000  17.0000  44.7500 Du        
   1136 ****       186.5000  17.0000  45.0000 Du        
   1137 ****       186.5000  17.0000  45.2500 Du        
   1138 ****       186.5000  17.0000  45.5000 Du        
   1139 ****       186.5000  17.0000  45.7500 Du        
   1140 ****       186.5000  17.0000  51.5000 Du        
   1141 ****       186.5000  17.0000  51.7500 Du        
   1142 ****       186.5000  17.0000  52.0000 Du        
   1143 ****       186.5000  17.2500  44.7500 Du        
   1144 ****       186.5000  17.2500  45.0000 Du        
   1145 ****       186.5000  17.2500  45.2500 Du        
   1146 ****       186.5000  17.2500  45.5000 Du        
   1147 ****       186.5000  17.2500  45.7500 Du        
   1148 ****       186.5000  17.2500  46.0000 Du        
   1149 ****       186.5000  17.2500  51.5000 Du        
   1150 ****       186.5000  17.2500  51.7500 Du        
   1151 ****       186.5000  17.2500  52.0000 Du        
   1152 ****       186.5000  17.2500  52.2500 Du        
   1153 ****       186.5000  17.2500  52.5000 Du        
   1154 ****       186.5000  17.5000  44.7500 Du        
   1155 ****       186.5000  17.5000  45.0000 Du        
   1156 ****       186.5000  17.5000  45.2500 Du        
   1157 ****       186.5000  17.5000  45.5000 Du        
   1158 ****       186.5000  17.5000  45.7500 Du        
   1159 ****       186.5000  17.5000  51.5000 Du        
   1160 ****       186.5000  17.5000  51.7500 Du        
   1161 ****       186.5000  17.5000  52.0000 Du        
   1162 ****       186.5000  17.5000  52.2500 Du        
   1163 ****       186.5000  17.5000  52.5000 Du        
   1164 ****       186.5000  17.5000  52.7500 Du        
   1165 ****       186.5000  17.7500  44.7500 Du        
   1166 ****       186.5000  17.7500  45.0000 Du        
   1167 ****       186.5000  17.7500  45.2500 Du        
   1168 ****       186.5000  17.7500  45.5000 Du        
   1169 ****       186.5000  17.7500  45.7500 Du        
   1170 ****       186.5000  17.7500  46.0000 Du        
   1171 ****       186.5000  17.7500  51.5000 Du        
   1172 ****       186.5000  17.7500  51.7500 Du        
   1173 ****       186.5000  17.7500  52.0000 Du        
   1174 ****       186.5000  17.7500  52.2500 Du        
   1175 ****       186.5000  17.7500  52.5000 Du        
   1176 ****       186.5000  17.7500  52.7500 Du        
   1177 ****       186.5000  17.7500  53.0000 Du        
   1178 ****       186.5000  18.0000  45.0000 Du        
   1179 ****       186.5000  18.0000  45.2500 Du        
   1180 ****       186.5000  18.0000  45.5000 Du        
   1181 ****       186.5000  18.0000  45.7500 Du        
   1182 ****       186.5000  18.0000  46.0000 Du        
   1183 ****       186.5000  18.0000  51.2500 Du        
   1184 ****       186.5000  18.0000  51.5000 Du        
   1185 ****       186.5000  18.0000  51.7500 Du        
   1186 ****       186.5000  18.0000  52.0000 Du        
   1187 ****       186.5000  18.0000  52.2500 Du        
   1188 ****       186.5000  18.0000  52.5000 Du        
   1189 ****       186.5000  18.0000  52.7500 Du        
   1190 ****       186.5000  18.0000  53.0000 Du        
   1191 ****       186.5000  18.0000  53.2500 Du        
   1192 ****       186.5000  18.2500  45.0000 Du        
   1193 ****       186.5000  18.2500  45.2500 Du        
   1194 ****       186.5000  18.2500  45.5000 Du        
   1195 ****       186.5000  18.2500  51.0000 Du        
   1196 ****       186.5000  18.2500  51.2500 Du        
   1197 ****       186.5000  18.2500  51.5000 Du        
   1198 ****       186.5000  18.2500  51.7500 Du        
   1199 ****       186.5000  18.2500  52.0000 Du        
   1200 ****       186.5000  18.2500  52.2500 Du        
   1201 ****       186.5000  18.2500  52.5000 Du        
   1202 ****       186.5000  18.2500  52.7500 Du        
   1203 ****       186.5000  18.2500  53.0000 Du        
   1204 ****       186.5000  18.2500  53.2500 Du        
   1205 ****       186.5000  18.5000  50.7500 Du        
   1206 ****       186.5000  18.5000  51.0000 Du        
   1207 ****       186.5000  18.5000  51.2500 Du        
   1208 ****       186.5000  18.5000  51.5000 Du        
   1209 ****       186.5000  18.5000  51.7500 Du        
   1210 ****       186.5000  18.5000  52.0000 Du        
   1211 ****       186.5000  18.5000  52.2500 Du        
   1212 ****       186.5000  18.5000  52.5000 Du        
   1213 ****       186.5000  18.5000  52.7500 Du        
   1214 ****       186.5000  18.5000  53.0000 Du        
   1215 ****       186.5000  18.7500  50.7500 Du        
   1216 ****       186.5000  18.7500  51.0000 Du        
   1217 ****       186.5000  18.7500  51.2500 Du        
   1218 ****       186.5000  18.7500  51.5000 Du        
   1219 ****       186.5000  18.7500  51.7500 Du        
   1220 ****       186.5000  18.7500  52.0000 Du        
   1221 ****       186.5000  18.7500  52.2500 Du        
   1222 ****       186.5000  18.7500  52.5000 Du        
   1223 ****       186.5000  18.7500  52.7500 Du        
   1224 ****       186.5000  18.7500  53.0000 Du        
   1225 ****       186.5000  19.0000  50.5000 Du        
   1226 ****       186.5000  19.0000  50.7500 Du        
   1227 ****       186.5000  19.0000  51.0000 Du        
   1228 ****       186.5000  19.0000  51.2500 Du        
   1229 ****       186.5000  19.0000  51.5000 Du        
   1230 ****       186.5000  19.0000  51.7500 Du        
   1231 ****       186.5000  19.0000  52.0000 Du        
   1232 ****       186.5000  19.0000  52.2500 Du        
   1233 ****       186.5000  19.0000  52.5000 Du        
   1234 ****       186.5000  19.0000  52.7500 Du        
   1235 ****       186.5000  19.2500  50.5000 Du        
   1236 ****       186.5000  19.2500  50.7500 Du        
   1237 ****       186.5000  19.2500  51.0000 Du        
   1238 ****       186.5000  19.2500  51.2500 Du        
   1239 ****       186.5000  19.2500  51.5000 Du        
   1240 ****       186.5000  19.2500  51.7500 Du        
   1241 ****       186.5000  19.2500  52.0000 Du        
   1242 ****       186.5000  19.2500  52.2500 Du        
   1243 ****       186.5000  19.2500  52.5000 Du        
   1244 ****       186.5000  19.5000  50.7500 Du        
   1245 ****       186.5000  19.5000  51.0000 Du        
   1246 ****       186.5000  19.5000  51.2500 Du        
   1247 ****       186.5000  19.5000  51.5000 Du        
   1248 ****       186.5000  19.5000  51.7500 Du        
   1249 ****       186.5000  19.5000  52.0000 Du        
   1250 ****       186.5000  19.5000  52.2500 Du        
   1251 ****       186.5000  19.5000  52.5000 Du        
   1252 ****       186.5000  19.7500  50.5000 Du        
   1253 ****       186.5000  19.7500  50.7500 Du        
   1254 ****       186.5000  19.7500  51.0000 Du        
   1255 ****       186.5000  19.7500  51.2500 Du        
   1256 ****       186.5000  19.7500  51.5000 Du        
   1257 ****       186.5000  19.7500  51.7500 Du        
   1258 ****       186.5000  19.7500  52.0000 Du        
   1259 ****       186.5000  19.7500  52.2500 Du        
   1260 ****       186.5000  20.0000  50.5000 Du        
   1261 ****       186.5000  20.0000  50.7500 Du        
   1262 ****       186.5000  20.0000  51.0000 Du        
   1263 ****       186.5000  20.0000  51.2500 Du        
   1264 ****       186.5000  20.0000  51.5000 Du        
   1265 ****       186.5000  20.0000  51.7500 Du        
   1266 ****       186.5000  20.0000  52.0000 Du        
   1267 ****       186.5000  20.0000  52.2500 Du        
   1268 ****       186.5000  20.2500  50.5000 Du        
   1269 ****       186.5000  20.2500  50.7500 Du        
   1270 ****       186.5000  20.2500  51.0000 Du        
   1271 ****       186.5000  20.2500  51.2500 Du        
   1272 ****       186.5000  20.2500  51.5000 Du        
   1273 ****       186.5000  20.2500  51.7500 Du        
   1274 ****       186.5000  20.2500  52.0000 Du        
   1275 ****       186.5000  20.5000  50.5000 Du        
   1276 ****       186.5000  20.5000  50.7500 Du        
   1277 ****       186.5000  20.5000  51.0000 Du        
   1278 ****       186.5000  20.5000  51.2500 Du        
   1279 ****       186.5000  20.5000  51.5000 Du        
   1280 ****       186.5000  20.5000  51.7500 Du        
   1281 ****       186.5000  20.5000  52.0000 Du        
   1282 ****       186.5000  20.7500  50.2500 Du        
   1283 ****       186.5000  20.7500  50.5000 Du        
   1284 ****       186.5000  20.7500  50.7500 Du        
   1285 ****       186.5000  20.7500  51.0000 Du        
   1286 ****       186.5000  20.7500  51.2500 Du        
   1287 ****       186.5000  20.7500  51.5000 Du        
   1288 ****       186.5000  20.7500  51.7500 Du        
   1289 ****       186.5000  21.0000  50.2500 Du        
   1290 ****       186.5000  21.0000  50.5000 Du        
   1291 ****       186.5000  21.0000  50.7500 Du        
   1292 ****       186.5000  21.0000  51.0000 Du        
   1293 ****       186.5000  21.0000  51.2500 Du        
   1294 ****       186.5000  21.0000  51.5000 Du        
   1295 ****       186.5000  21.0000  51.7500 Du        
   1296 ****       186.5000  21.2500  50.2500 Du        
   1297 ****       186.5000  21.2500  50.5000 Du        
   1298 ****       186.5000  21.2500  50.7500 Du        
   1299 ****       186.5000  21.2500  51.0000 Du        
   1300 ****       186.5000  21.2500  51.2500 Du        
   1301 ****       186.5000  21.2500  51.5000 Du        
   1302 ****       186.5000  21.2500  51.7500 Du        
   1303 ****       186.5000  21.5000  50.2500 Du        
   1304 ****       186.5000  21.5000  50.5000 Du        
   1305 ****       186.5000  21.5000  50.7500 Du        
   1306 ****       186.5000  21.5000  51.0000 Du        
   1307 ****       186.5000  21.5000  51.2500 Du        
   1308 ****       186.5000  21.5000  51.5000 Du        
   1309 ****       186.5000  21.5000  51.7500 Du        
   1310 ****       186.5000  21.7500  50.2500 Du        
   1311 ****       186.5000  21.7500  50.5000 Du        
   1312 ****       186.5000  21.7500  50.7500 Du        
   1313 ****       186.5000  21.7500  51.0000 Du        
   1314 ****       186.5000  21.7500  51.2500 Du        
   1315 ****       186.5000  21.7500  51.5000 Du        
   1316 ****       186.5000  22.0000  50.2500 Du        
   1317 ****       186.5000  22.0000  50.5000 Du        
   1318 ****       186.5000  22.0000  50.7500 Du        
   1319 ****       186.5000  22.0000  51.0000 Du        
   1320 ****       186.5000  22.0000  51.2500 Du        
   1321 ****       186.5000  22.0000  51.5000 Du        
   1322 ****       186.5000  22.2500  50.2500 Du        
   1323 ****       186.5000  22.2500  50.5000 Du        
   1324 ****       186.5000  22.2500  50.7500 Du        
   1325 ****       186.5000  22.2500  51.0000 Du        
   1326 ****       186.5000  22.2500  51.2500 Du        
   1327 ****       186.5000  22.5000  50.5000 Du        
   1328 ****       186.5000  22.5000  50.7500 Du        
   1329 ****       186.5000  22.7500  50.5000 Du        
   1330 ****       186.5000  22.7500  50.7500 Du        
   1331 ****       186.5000  23.0000  50.5000 Du        
   1332 ****       186.5000  23.2500  50.5000 Du        
   1333 ****       186.7500  13.0000  49.5000 Du        
   1334 ****       186.7500  13.0000  49.7500 Du        
   1335 ****       186.7500  13.0000  50.0000 Du        
   1336 ****       186.7500  13.0000  50.2500 Du        
   1337 ****       186.7500  13.2500  49.2500 Du        
   1338 ****       186.7500  13.2500  49.5000 Du        
   1339 ****       186.7500  13.2500  49.7500 Du        
   1340 ****       186.7500  13.2500  50.0000 Du        
   1341 ****       186.7500  13.2500  50.2500 Du        
   1342 ****       186.7500  13.5000  49.2500 Du        
   1343 ****       186.7500  13.5000  49.5000 Du        
   1344 ****       186.7500  13.5000  49.7500 Du        
   1345 ****       186.7500  13.5000  50.0000 Du        
   1346 ****       186.7500  13.5000  50.2500 Du        
   1347 ****       186.7500  13.7500  49.2500 Du        
   1348 ****       186.7500  13.7500  49.5000 Du        
   1349 ****       186.7500  13.7500  49.7500 Du        
   1350 ****       186.7500  13.7500  50.0000 Du        
   1351 ****       186.7500  13.7500  50.2500 Du        
   1352 ****       186.7500  14.0000  49.0000 Du        
   1353 ****       186.7500  14.0000  49.2500 Du        
   1354 ****       186.7500  14.0000  49.5000 Du        
   1355 ****       186.7500  14.0000  49.7500 Du        
   1356 ****       186.7500  14.0000  50.0000 Du        
   1357 ****       186.7500  14.0000  50.2500 Du        
   1358 ****       186.7500  14.2500  49.0000 Du        
   1359 ****       186.7500  14.2500  49.2500 Du        
   1360 ****       186.7500  14.2500  49.5000 Du        
   1361 ****       186.7500  14.2500  49.7500 Du        
   1362 ****       186.7500  14.2500  50.0000 Du        
   1363 ****       186.7500  14.2500  50.2500 Du        
   1364 ****       186.7500  14.5000  49.0000 Du        
   1365 ****       186.7500  14.5000  49.2500 Du        
   1366 ****       186.7500  14.5000  49.5000 Du        
   1367 ****       186.7500  14.5000  49.7500 Du        
   1368 ****       186.7500  14.5000  50.0000 Du        
   1369 ****       186.7500  14.5000  50.2500 Du        
   1370 ****       186.7500  14.7500  49.0000 Du        
   1371 ****       186.7500  14.7500  49.2500 Du        
   1372 ****       186.7500  14.7500  49.5000 Du        
   1373 ****       186.7500  14.7500  49.7500 Du        
   1374 ****       186.7500  14.7500  50.0000 Du        
   1375 ****       186.7500  14.7500  50.2500 Du        
   1376 ****       186.7500  15.0000  49.0000 Du        
   1377 ****       186.7500  15.0000  49.2500 Du        
   1378 ****       186.7500  15.0000  49.5000 Du        
   1379 ****       186.7500  15.0000  49.7500 Du        
   1380 ****       186.7500  15.0000  50.0000 Du        
   1381 ****       186.7500  15.0000  50.2500 Du        
   1382 ****       186.7500  15.2500  49.2500 Du        
   1383 ****       186.7500  15.2500  49.5000 Du        
   1384 ****       186.7500  15.2500  49.7500 Du        
   1385 ****       186.7500  15.2500  50.0000 Du        
   1386 ****       186.7500  16.2500  44.7500 Du        
   1387 ****       186.7500  16.2500  45.0000 Du        
   1388 ****       186.7500  16.2500  45.2500 Du        
   1389 ****       186.7500  16.5000  44.5000 Du        
   1390 ****       186.7500  16.5000  44.7500 Du        
   1391 ****       186.7500  16.5000  45.0000 Du        
   1392 ****       186.7500  16.5000  45.2500 Du        
   1393 ****       186.7500  16.5000  45.5000 Du        
   1394 ****       186.7500  16.5000  45.7500 Du        
   1395 ****       186.7500  16.7500  44.5000 Du        
   1396 ****       186.7500  16.7500  44.7500 Du        
   1397 ****       186.7500  16.7500  45.0000 Du        
   1398 ****       186.7500  16.7500  45.2500 Du        
   1399 ****       186.7500  16.7500  45.5000 Du        
   1400 ****       186.7500  16.7500  45.7500 Du        
   1401 ****       186.7500  16.7500  46.0000 Du        
   1402 ****       186.7500  17.0000  44.5000 Du        
   1403 ****       186.7500  17.0000  44.7500 Du        
   1404 ****       186.7500  17.0000  45.0000 Du        
   1405 ****       186.7500  17.0000  45.2500 Du        
   1406 ****       186.7500  17.0000  45.5000 Du        
   1407 ****       186.7500  17.0000  45.7500 Du        
   1408 ****       186.7500  17.0000  46.0000 Du        
   1409 ****       186.7500  17.0000  46.2500 Du        
   1410 ****       186.7500  17.2500  44.5000 Du        
   1411 ****       186.7500  17.2500  44.7500 Du        
   1412 ****       186.7500  17.2500  45.0000 Du        
   1413 ****       186.7500  17.2500  45.2500 Du        
   1414 ****       186.7500  17.2500  45.5000 Du        
   1415 ****       186.7500  17.2500  45.7500 Du        
   1416 ****       186.7500  17.2500  46.0000 Du        
   1417 ****       186.7500  17.2500  46.2500 Du        
   1418 ****       186.7500  17.2500  52.0000 Du        
   1419 ****       186.7500  17.2500  52.2500 Du        
   1420 ****       186.7500  17.2500  52.5000 Du        
   1421 ****       186.7500  17.5000  44.7500 Du        
   1422 ****       186.7500  17.5000  45.0000 Du        
   1423 ****       186.7500  17.5000  45.2500 Du        
   1424 ****       186.7500  17.5000  45.5000 Du        
   1425 ****       186.7500  17.5000  45.7500 Du        
   1426 ****       186.7500  17.5000  46.0000 Du        
   1427 ****       186.7500  17.5000  46.2500 Du        
   1428 ****       186.7500  17.5000  52.0000 Du        
   1429 ****       186.7500  17.5000  52.2500 Du        
   1430 ****       186.7500  17.5000  52.5000 Du        
   1431 ****       186.7500  17.5000  52.7500 Du        
   1432 ****       186.7500  17.7500  44.7500 Du        
   1433 ****       186.7500  17.7500  45.0000 Du        
   1434 ****       186.7500  17.7500  45.2500 Du        
   1435 ****       186.7500  17.7500  45.5000 Du        
   1436 ****       186.7500  17.7500  45.7500 Du        
   1437 ****       186.7500  17.7500  46.0000 Du        
   1438 ****       186.7500  17.7500  51.7500 Du        
   1439 ****       186.7500  17.7500  52.0000 Du        
   1440 ****       186.7500  17.7500  52.2500 Du        
   1441 ****       186.7500  17.7500  52.5000 Du        
   1442 ****       186.7500  17.7500  52.7500 Du        
   1443 ****       186.7500  17.7500  53.0000 Du        
   1444 ****       186.7500  18.0000  44.7500 Du        
   1445 ****       186.7500  18.0000  45.0000 Du        
   1446 ****       186.7500  18.0000  45.2500 Du        
   1447 ****       186.7500  18.0000  45.5000 Du        
   1448 ****       186.7500  18.0000  45.7500 Du        
   1449 ****       186.7500  18.0000  46.0000 Du        
   1450 ****       186.7500  18.0000  51.5000 Du        
   1451 ****       186.7500  18.0000  51.7500 Du        
   1452 ****       186.7500  18.0000  52.0000 Du        
   1453 ****       186.7500  18.0000  52.2500 Du        
   1454 ****       186.7500  18.0000  52.5000 Du        
   1455 ****       186.7500  18.0000  52.7500 Du        
   1456 ****       186.7500  18.0000  53.0000 Du        
   1457 ****       186.7500  18.0000  53.2500 Du        
   1458 ****       186.7500  18.2500  44.7500 Du        
   1459 ****       186.7500  18.2500  45.0000 Du        
   1460 ****       186.7500  18.2500  45.2500 Du        
   1461 ****       186.7500  18.2500  45.5000 Du        
   1462 ****       186.7500  18.2500  51.5000 Du        
   1463 ****       186.7500  18.2500  51.7500 Du        
   1464 ****       186.7500  18.2500  52.0000 Du        
   1465 ****       186.7500  18.2500  52.2500 Du        
   1466 ****       186.7500  18.2500  52.5000 Du        
   1467 ****       186.7500  18.2500  52.7500 Du        
   1468 ****       186.7500  18.2500  53.0000 Du        
   1469 ****       186.7500  18.2500  53.2500 Du        
   1470 ****       186.7500  18.5000  51.2500 Du        
   1471 ****       186.7500  18.5000  51.5000 Du        
   1472 ****       186.7500  18.5000  51.7500 Du        
   1473 ****       186.7500  18.5000  52.0000 Du        
   1474 ****       186.7500  18.5000  52.2500 Du        
   1475 ****       186.7500  18.5000  52.5000 Du        
   1476 ****       186.7500  18.5000  52.7500 Du        
   1477 ****       186.7500  18.5000  53.0000 Du        
   1478 ****       186.7500  18.5000  53.2500 Du        
   1479 ****       186.7500  18.7500  50.7500 Du        
   1480 ****       186.7500  18.7500  51.0000 Du        
   1481 ****       186.7500  18.7500  51.2500 Du        
   1482 ****       186.7500  18.7500  51.5000 Du        
   1483 ****       186.7500  18.7500  51.7500 Du        
   1484 ****       186.7500  18.7500  52.0000 Du        
   1485 ****       186.7500  18.7500  52.2500 Du        
   1486 ****       186.7500  18.7500  52.5000 Du        
   1487 ****       186.7500  18.7500  52.7500 Du        
   1488 ****       186.7500  18.7500  53.0000 Du        
   1489 ****       186.7500  19.0000  50.7500 Du        
   1490 ****       186.7500  19.0000  51.0000 Du        
   1491 ****       186.7500  19.0000  51.2500 Du        
   1492 ****       186.7500  19.0000  51.5000 Du        
   1493 ****       186.7500  19.0000  51.7500 Du        
   1494 ****       186.7500  19.0000  52.0000 Du        
   1495 ****       186.7500  19.0000  52.2500 Du        
   1496 ****       186.7500  19.0000  52.5000 Du        
   1497 ****       186.7500  19.0000  52.7500 Du        
   1498 ****       186.7500  19.2500  50.5000 Du        
   1499 ****       186.7500  19.2500  50.7500 Du        
   1500 ****       186.7500  19.2500  51.0000 Du        
   1501 ****       186.7500  19.2500  51.2500 Du        
   1502 ****       186.7500  19.2500  51.5000 Du        
   1503 ****       186.7500  19.2500  51.7500 Du        
   1504 ****       186.7500  19.2500  52.0000 Du        
   1505 ****       186.7500  19.2500  52.2500 Du        
   1506 ****       186.7500  19.2500  52.5000 Du        
   1507 ****       186.7500  19.2500  52.7500 Du        
   1508 ****       186.7500  19.5000  50.5000 Du        
   1509 ****       186.7500  19.5000  50.7500 Du        
   1510 ****       186.7500  19.5000  51.0000 Du        
   1511 ****       186.7500  19.5000  51.2500 Du        
   1512 ****       186.7500  19.5000  51.5000 Du        
   1513 ****       186.7500  19.5000  51.7500 Du        
   1514 ****       186.7500  19.5000  52.0000 Du        
   1515 ****       186.7500  19.5000  52.2500 Du        
   1516 ****       186.7500  19.5000  52.5000 Du        
   1517 ****       186.7500  19.7500  50.2500 Du        
   1518 ****       186.7500  19.7500  50.5000 Du        
   1519 ****       186.7500  19.7500  50.7500 Du        
   1520 ****       186.7500  19.7500  51.0000 Du        
   1521 ****       186.7500  19.7500  51.2500 Du        
   1522 ****       186.7500  19.7500  51.5000 Du        
   1523 ****       186.7500  19.7500  51.7500 Du        
   1524 ****       186.7500  19.7500  52.0000 Du        
   1525 ****       186.7500  19.7500  52.2500 Du        
   1526 ****       186.7500  20.0000  50.2500 Du        
   1527 ****       186.7500  20.0000  50.5000 Du        
   1528 ****       186.7500  20.0000  50.7500 Du        
   1529 ****       186.7500  20.0000  51.0000 Du        
   1530 ****       186.7500  20.0000  51.2500 Du        
   1531 ****       186.7500  20.0000  51.5000 Du        
   1532 ****       186.7500  20.0000  51.7500 Du        
   1533 ****       186.7500  20.0000  52.0000 Du        
   1534 ****       186.7500  20.0000  52.2500 Du        
   1535 ****       186.7500  20.2500  50.2500 Du        
   1536 ****       186.7500  20.2500  50.5000 Du        
   1537 ****       186.7500  20.2500  50.7500 Du        
   1538 ****       186.7500  20.2500  51.0000 Du        
   1539 ****       186.7500  20.2500  51.2500 Du        
   1540 ****       186.7500  20.2500  51.5000 Du        
   1541 ****       186.7500  20.2500  51.7500 Du        
   1542 ****       186.7500  20.2500  52.0000 Du        
   1543 ****       186.7500  20.5000  50.0000 Du        
   1544 ****       186.7500  20.5000  50.2500 Du        
   1545 ****       186.7500  20.5000  50.5000 Du        
   1546 ****       186.7500  20.5000  50.7500 Du        
   1547 ****       186.7500  20.5000  51.0000 Du        
   1548 ****       186.7500  20.5000  51.2500 Du        
   1549 ****       186.7500  20.5000  51.5000 Du        
   1550 ****       186.7500  20.5000  51.7500 Du        
   1551 ****       186.7500  20.5000  52.0000 Du        
   1552 ****       186.7500  20.7500  50.0000 Du        
   1553 ****       186.7500  20.7500  50.2500 Du        
   1554 ****       186.7500  20.7500  50.5000 Du        
   1555 ****       186.7500  20.7500  50.7500 Du        
   1556 ****       186.7500  20.7500  51.0000 Du        
   1557 ****       186.7500  20.7500  51.2500 Du        
   1558 ****       186.7500  20.7500  51.5000 Du        
   1559 ****       186.7500  20.7500  51.7500 Du        
   1560 ****       186.7500  20.7500  52.0000 Du        
   1561 ****       186.7500  21.0000  50.0000 Du        
   1562 ****       186.7500  21.0000  50.2500 Du        
   1563 ****       186.7500  21.0000  50.5000 Du        
   1564 ****       186.7500  21.0000  50.7500 Du        
   1565 ****       186.7500  21.0000  51.0000 Du        
   1566 ****       186.7500  21.0000  51.2500 Du        
   1567 ****       186.7500  21.0000  51.5000 Du        
   1568 ****       186.7500  21.0000  51.7500 Du        
   1569 ****       186.7500  21.2500  50.0000 Du        
   1570 ****       186.7500  21.2500  50.2500 Du        
   1571 ****       186.7500  21.2500  50.5000 Du        
   1572 ****       186.7500  21.2500  50.7500 Du        
   1573 ****       186.7500  21.2500  51.0000 Du        
   1574 ****       186.7500  21.2500  51.2500 Du        
   1575 ****       186.7500  21.2500  51.5000 Du        
   1576 ****       186.7500  21.2500  51.7500 Du        
   1577 ****       186.7500  21.5000  50.0000 Du        
   1578 ****       186.7500  21.5000  50.2500 Du        
   1579 ****       186.7500  21.5000  50.5000 Du        
   1580 ****       186.7500  21.5000  50.7500 Du        
   1581 ****       186.7500  21.5000  51.0000 Du        
   1582 ****       186.7500  21.5000  51.2500 Du        
   1583 ****       186.7500  21.5000  51.5000 Du        
   1584 ****       186.7500  21.5000  51.7500 Du        
   1585 ****       186.7500  21.7500  50.0000 Du        
   1586 ****       186.7500  21.7500  50.2500 Du        
   1587 ****       186.7500  21.7500  50.5000 Du        
   1588 ****       186.7500  21.7500  50.7500 Du        
   1589 ****       186.7500  21.7500  51.0000 Du        
   1590 ****       186.7500  21.7500  51.2500 Du        
   1591 ****       186.7500  21.7500  51.5000 Du        
   1592 ****       186.7500  22.0000  50.0000 Du        
   1593 ****       186.7500  22.0000  50.2500 Du        
   1594 ****       186.7500  22.0000  50.5000 Du        
   1595 ****       186.7500  22.0000  50.7500 Du        
   1596 ****       186.7500  22.0000  51.0000 Du        
   1597 ****       186.7500  22.0000  51.2500 Du        
   1598 ****       186.7500  22.0000  51.5000 Du        
   1599 ****       186.7500  22.2500  50.0000 Du        
   1600 ****       186.7500  22.2500  50.2500 Du        
   1601 ****       186.7500  22.2500  50.5000 Du        
   1602 ****       186.7500  22.2500  50.7500 Du        
   1603 ****       186.7500  22.2500  51.0000 Du        
   1604 ****       186.7500  22.5000  50.5000 Du        
   1605 ****       186.7500  22.5000  50.7500 Du        
   1606 ****       186.7500  22.7500  50.5000 Du        
   1607 ****       186.7500  23.7500  49.7500 Du        
   1608 ****       187.0000  12.7500  49.5000 Du        
   1609 ****       187.0000  12.7500  49.7500 Du        
   1610 ****       187.0000  12.7500  50.0000 Du        
   1611 ****       187.0000  12.7500  50.2500 Du        
   1612 ****       187.0000  13.0000  49.5000 Du        
   1613 ****       187.0000  13.0000  49.7500 Du        
   1614 ****       187.0000  13.0000  50.0000 Du        
   1615 ****       187.0000  13.0000  50.2500 Du        
   1616 ****       187.0000  13.2500  49.2500 Du        
   1617 ****       187.0000  13.2500  49.5000 Du        
   1618 ****       187.0000  13.2500  49.7500 Du        
   1619 ****       187.0000  13.2500  50.0000 Du        
   1620 ****       187.0000  13.2500  50.2500 Du        
   1621 ****       187.0000  13.5000  49.2500 Du        
   1622 ****       187.0000  13.5000  49.5000 Du        
   1623 ****       187.0000  13.5000  49.7500 Du        
   1624 ****       187.0000  13.5000  50.0000 Du        
   1625 ****       187.0000  13.5000  50.2500 Du        
   1626 ****       187.0000  13.7500  49.2500 Du        
   1627 ****       187.0000  13.7500  49.5000 Du        
   1628 ****       187.0000  13.7500  49.7500 Du        
   1629 ****       187.0000  13.7500  50.0000 Du        
   1630 ****       187.0000  13.7500  50.2500 Du        
   1631 ****       187.0000  14.0000  49.0000 Du        
   1632 ****       187.0000  14.0000  49.2500 Du        
   1633 ****       187.0000  14.0000  49.5000 Du        
   1634 ****       187.0000  14.0000  49.7500 Du        
   1635 ****       187.0000  14.0000  50.0000 Du        
   1636 ****       187.0000  14.0000  50.2500 Du        
   1637 ****       187.0000  14.2500  49.0000 Du        
   1638 ****       187.0000  14.2500  49.2500 Du        
   1639 ****       187.0000  14.2500  49.5000 Du        
   1640 ****       187.0000  14.2500  49.7500 Du        
   1641 ****       187.0000  14.2500  50.0000 Du        
   1642 ****       187.0000  14.2500  50.2500 Du        
   1643 ****       187.0000  14.5000  49.0000 Du        
   1644 ****       187.0000  14.5000  49.2500 Du        
   1645 ****       187.0000  14.5000  49.5000 Du        
   1646 ****       187.0000  14.5000  49.7500 Du        
   1647 ****       187.0000  14.5000  50.0000 Du        
   1648 ****       187.0000  14.5000  50.2500 Du        
   1649 ****       187.0000  14.7500  48.7500 Du        
   1650 ****       187.0000  14.7500  49.0000 Du        
   1651 ****       187.0000  14.7500  49.2500 Du        
   1652 ****       187.0000  14.7500  49.5000 Du        
   1653 ****       187.0000  14.7500  49.7500 Du        
   1654 ****       187.0000  14.7500  50.0000 Du        
   1655 ****       187.0000  14.7500  50.2500 Du        
   1656 ****       187.0000  15.0000  48.7500 Du        
   1657 ****       187.0000  15.0000  49.0000 Du        
   1658 ****       187.0000  15.0000  49.2500 Du        
   1659 ****       187.0000  15.0000  49.5000 Du        
   1660 ****       187.0000  15.0000  49.7500 Du        
   1661 ****       187.0000  15.0000  50.0000 Du        
   1662 ****       187.0000  15.2500  48.7500 Du        
   1663 ****       187.0000  15.2500  49.0000 Du        
   1664 ****       187.0000  15.2500  49.2500 Du        
   1665 ****       187.0000  15.2500  49.5000 Du        
   1666 ****       187.0000  15.2500  49.7500 Du        
   1667 ****       187.0000  15.2500  50.0000 Du        
   1668 ****       187.0000  16.2500  44.7500 Du        
   1669 ****       187.0000  16.2500  45.0000 Du        
   1670 ****       187.0000  16.2500  45.2500 Du        
   1671 ****       187.0000  16.2500  45.5000 Du        
   1672 ****       187.0000  16.5000  44.5000 Du        
   1673 ****       187.0000  16.5000  44.7500 Du        
   1674 ****       187.0000  16.5000  45.0000 Du        
   1675 ****       187.0000  16.5000  45.2500 Du        
   1676 ****       187.0000  16.5000  45.5000 Du        
   1677 ****       187.0000  16.5000  45.7500 Du        
   1678 ****       187.0000  16.5000  46.0000 Du        
   1679 ****       187.0000  16.7500  44.5000 Du        
   1680 ****       187.0000  16.7500  44.7500 Du        
   1681 ****       187.0000  16.7500  45.0000 Du        
   1682 ****       187.0000  16.7500  45.2500 Du        
   1683 ****       187.0000  16.7500  45.5000 Du        
   1684 ****       187.0000  16.7500  45.7500 Du        
   1685 ****       187.0000  16.7500  46.0000 Du        
   1686 ****       187.0000  16.7500  46.2500 Du        
   1687 ****       187.0000  17.0000  44.5000 Du        
   1688 ****       187.0000  17.0000  44.7500 Du        
   1689 ****       187.0000  17.0000  45.0000 Du        
   1690 ****       187.0000  17.0000  45.2500 Du        
   1691 ****       187.0000  17.0000  45.5000 Du        
   1692 ****       187.0000  17.0000  45.7500 Du        
   1693 ****       187.0000  17.0000  46.0000 Du        
   1694 ****       187.0000  17.0000  46.2500 Du        
   1695 ****       187.0000  17.2500  44.2500 Du        
   1696 ****       187.0000  17.2500  44.5000 Du        
   1697 ****       187.0000  17.2500  44.7500 Du        
   1698 ****       187.0000  17.2500  45.0000 Du        
   1699 ****       187.0000  17.2500  45.2500 Du        
   1700 ****       187.0000  17.2500  45.5000 Du        
   1701 ****       187.0000  17.2500  45.7500 Du        
   1702 ****       187.0000  17.2500  46.0000 Du        
   1703 ****       187.0000  17.2500  46.2500 Du        
   1704 ****       187.0000  17.5000  44.5000 Du        
   1705 ****       187.0000  17.5000  44.7500 Du        
   1706 ****       187.0000  17.5000  45.0000 Du        
   1707 ****       187.0000  17.5000  45.2500 Du        
   1708 ****       187.0000  17.5000  45.5000 Du        
   1709 ****       187.0000  17.5000  45.7500 Du        
   1710 ****       187.0000  17.5000  46.0000 Du        
   1711 ****       187.0000  17.5000  46.2500 Du        
   1712 ****       187.0000  17.5000  52.5000 Du        
   1713 ****       187.0000  17.5000  52.7500 Du        
   1714 ****       187.0000  17.7500  44.5000 Du        
   1715 ****       187.0000  17.7500  44.7500 Du        
   1716 ****       187.0000  17.7500  45.0000 Du        
   1717 ****       187.0000  17.7500  45.2500 Du        
   1718 ****       187.0000  17.7500  45.5000 Du        
   1719 ****       187.0000  17.7500  45.7500 Du        
   1720 ****       187.0000  17.7500  46.0000 Du        
   1721 ****       187.0000  17.7500  52.2500 Du        
   1722 ****       187.0000  17.7500  52.5000 Du        
   1723 ****       187.0000  17.7500  52.7500 Du        
   1724 ****       187.0000  17.7500  53.0000 Du        
   1725 ****       187.0000  18.0000  44.5000 Du        
   1726 ****       187.0000  18.0000  44.7500 Du        
   1727 ****       187.0000  18.0000  45.0000 Du        
   1728 ****       187.0000  18.0000  45.2500 Du        
   1729 ****       187.0000  18.0000  45.5000 Du        
   1730 ****       187.0000  18.0000  52.0000 Du        
   1731 ****       187.0000  18.0000  52.2500 Du        
   1732 ****       187.0000  18.0000  52.5000 Du        
   1733 ****       187.0000  18.0000  52.7500 Du        
   1734 ****       187.0000  18.0000  53.0000 Du        
   1735 ****       187.0000  18.0000  53.2500 Du        
   1736 ****       187.0000  18.2500  44.7500 Du        
   1737 ****       187.0000  18.2500  45.2500 Du        
   1738 ****       187.0000  18.2500  51.7500 Du        
   1739 ****       187.0000  18.2500  52.0000 Du        
   1740 ****       187.0000  18.2500  52.2500 Du        
   1741 ****       187.0000  18.2500  52.5000 Du        
   1742 ****       187.0000  18.2500  52.7500 Du        
   1743 ****       187.0000  18.2500  53.0000 Du        
   1744 ****       187.0000  18.2500  53.2500 Du        
   1745 ****       187.0000  18.5000  51.5000 Du        
   1746 ****       187.0000  18.5000  51.7500 Du        
   1747 ****       187.0000  18.5000  52.0000 Du        
   1748 ****       187.0000  18.5000  52.2500 Du        
   1749 ****       187.0000  18.5000  52.5000 Du        
   1750 ****       187.0000  18.5000  52.7500 Du        
   1751 ****       187.0000  18.5000  53.0000 Du        
   1752 ****       187.0000  18.5000  53.2500 Du        
   1753 ****       187.0000  18.7500  51.2500 Du        
   1754 ****       187.0000  18.7500  51.5000 Du        
   1755 ****       187.0000  18.7500  51.7500 Du        
   1756 ****       187.0000  18.7500  52.0000 Du        
   1757 ****       187.0000  18.7500  52.2500 Du        
   1758 ****       187.0000  18.7500  52.5000 Du        
   1759 ****       187.0000  18.7500  52.7500 Du        
   1760 ****       187.0000  18.7500  53.0000 Du        
   1761 ****       187.0000  19.0000  51.0000 Du        
   1762 ****       187.0000  19.0000  51.2500 Du        
   1763 ****       187.0000  19.0000  51.5000 Du        
   1764 ****       187.0000  19.0000  51.7500 Du        
   1765 ****       187.0000  19.0000  52.0000 Du        
   1766 ****       187.0000  19.0000  52.2500 Du        
   1767 ****       187.0000  19.0000  52.5000 Du        
   1768 ****       187.0000  19.0000  52.7500 Du        
   1769 ****       187.0000  19.2500  50.7500 Du        
   1770 ****       187.0000  19.2500  51.0000 Du        
   1771 ****       187.0000  19.2500  51.2500 Du        
   1772 ****       187.0000  19.2500  51.5000 Du        
   1773 ****       187.0000  19.2500  51.7500 Du        
   1774 ****       187.0000  19.2500  52.0000 Du        
   1775 ****       187.0000  19.2500  52.2500 Du        
   1776 ****       187.0000  19.2500  52.5000 Du        
   1777 ****       187.0000  19.2500  52.7500 Du        
   1778 ****       187.0000  19.5000  50.7500 Du        
   1779 ****       187.0000  19.5000  51.0000 Du        
   1780 ****       187.0000  19.5000  51.2500 Du        
   1781 ****       187.0000  19.5000  51.5000 Du        
   1782 ****       187.0000  19.5000  51.7500 Du        
   1783 ****       187.0000  19.5000  52.0000 Du        
   1784 ****       187.0000  19.5000  52.2500 Du        
   1785 ****       187.0000  19.5000  52.5000 Du        
   1786 ****       187.0000  19.7500  50.2500 Du        
   1787 ****       187.0000  19.7500  50.5000 Du        
   1788 ****       187.0000  19.7500  50.7500 Du        
   1789 ****       187.0000  19.7500  51.0000 Du        
   1790 ****       187.0000  19.7500  51.2500 Du        
   1791 ****       187.0000  19.7500  51.5000 Du        
   1792 ****       187.0000  19.7500  51.7500 Du        
   1793 ****       187.0000  19.7500  52.0000 Du        
   1794 ****       187.0000  19.7500  52.2500 Du        
   1795 ****       187.0000  19.7500  52.5000 Du        
   1796 ****       187.0000  20.0000  50.0000 Du        
   1797 ****       187.0000  20.0000  50.2500 Du        
   1798 ****       187.0000  20.0000  50.5000 Du        
   1799 ****       187.0000  20.0000  50.7500 Du        
   1800 ****       187.0000  20.0000  51.0000 Du        
   1801 ****       187.0000  20.0000  51.2500 Du        
   1802 ****       187.0000  20.0000  51.5000 Du        
   1803 ****       187.0000  20.0000  51.7500 Du        
   1804 ****       187.0000  20.0000  52.0000 Du        
   1805 ****       187.0000  20.0000  52.2500 Du        
   1806 ****       187.0000  20.2500  50.2500 Du        
   1807 ****       187.0000  20.2500  50.5000 Du        
   1808 ****       187.0000  20.2500  50.7500 Du        
   1809 ****       187.0000  20.2500  51.0000 Du        
   1810 ****       187.0000  20.2500  51.2500 Du        
   1811 ****       187.0000  20.2500  51.5000 Du        
   1812 ****       187.0000  20.2500  51.7500 Du        
   1813 ****       187.0000  20.2500  52.0000 Du        
   1814 ****       187.0000  20.2500  52.2500 Du        
   1815 ****       187.0000  20.5000  50.2500 Du        
   1816 ****       187.0000  20.5000  50.5000 Du        
   1817 ****       187.0000  20.5000  50.7500 Du        
   1818 ****       187.0000  20.5000  51.0000 Du        
   1819 ****       187.0000  20.5000  51.2500 Du        
   1820 ****       187.0000  20.5000  51.5000 Du        
   1821 ****       187.0000  20.5000  51.7500 Du        
   1822 ****       187.0000  20.5000  52.0000 Du        
   1823 ****       187.0000  20.7500  50.2500 Du        
   1824 ****       187.0000  20.7500  50.5000 Du        
   1825 ****       187.0000  20.7500  50.7500 Du        
   1826 ****       187.0000  20.7500  51.0000 Du        
   1827 ****       187.0000  20.7500  51.2500 Du        
   1828 ****       187.0000  20.7500  51.5000 Du        
   1829 ****       187.0000  20.7500  51.7500 Du        
   1830 ****       187.0000  20.7500  52.0000 Du        
   1831 ****       187.0000  21.0000  50.0000 Du        
   1832 ****       187.0000  21.0000  50.2500 Du        
   1833 ****       187.0000  21.0000  50.5000 Du        
   1834 ****       187.0000  21.0000  50.7500 Du        
   1835 ****       187.0000  21.0000  51.0000 Du        
   1836 ****       187.0000  21.0000  51.2500 Du        
   1837 ****       187.0000  21.0000  51.5000 Du        
   1838 ****       187.0000  21.0000  51.7500 Du        
   1839 ****       187.0000  21.2500  50.0000 Du        
   1840 ****       187.0000  21.2500  50.2500 Du        
   1841 ****       187.0000  21.2500  50.5000 Du        
   1842 ****       187.0000  21.2500  50.7500 Du        
   1843 ****       187.0000  21.2500  51.0000 Du        
   1844 ****       187.0000  21.2500  51.2500 Du        
   1845 ****       187.0000  21.2500  51.5000 Du        
   1846 ****       187.0000  21.2500  51.7500 Du        
   1847 ****       187.0000  21.5000  49.7500 Du        
   1848 ****       187.0000  21.5000  50.0000 Du        
   1849 ****       187.0000  21.5000  50.2500 Du        
   1850 ****       187.0000  21.5000  50.5000 Du        
   1851 ****       187.0000  21.5000  50.7500 Du        
   1852 ****       187.0000  21.5000  51.0000 Du        
   1853 ****       187.0000  21.5000  51.2500 Du        
   1854 ****       187.0000  21.5000  51.5000 Du        
   1855 ****       187.0000  21.7500  49.7500 Du        
   1856 ****       187.0000  21.7500  50.0000 Du        
   1857 ****       187.0000  21.7500  50.2500 Du        
   1858 ****       187.0000  21.7500  50.5000 Du        
   1859 ****       187.0000  21.7500  50.7500 Du        
   1860 ****       187.0000  21.7500  51.0000 Du        
   1861 ****       187.0000  21.7500  51.2500 Du        
   1862 ****       187.0000  21.7500  51.5000 Du        
   1863 ****       187.0000  22.0000  49.7500 Du        
   1864 ****       187.0000  22.0000  50.0000 Du        
   1865 ****       187.0000  22.0000  50.2500 Du        
   1866 ****       187.0000  22.0000  50.5000 Du        
   1867 ****       187.0000  22.0000  50.7500 Du        
   1868 ****       187.0000  22.0000  51.0000 Du        
   1869 ****       187.0000  22.0000  51.2500 Du        
   1870 ****       187.0000  22.2500  50.0000 Du        
   1871 ****       187.0000  22.2500  50.2500 Du        
   1872 ****       187.0000  22.2500  50.5000 Du        
   1873 ****       187.0000  22.2500  50.7500 Du        
   1874 ****       187.2500   9.5000  48.5000 Du        
   1875 ****       187.2500   9.5000  48.7500 Du        
   1876 ****       187.2500   9.5000  49.0000 Du        
   1877 ****       187.2500   9.5000  49.2500 Du        
   1878 ****       187.2500   9.7500  48.2500 Du        
   1879 ****       187.2500   9.7500  48.5000 Du        
   1880 ****       187.2500   9.7500  48.7500 Du        
   1881 ****       187.2500   9.7500  49.0000 Du        
   1882 ****       187.2500   9.7500  49.2500 Du        
   1883 ****       187.2500   9.7500  49.5000 Du        
   1884 ****       187.2500  10.0000  48.5000 Du        
   1885 ****       187.2500  10.0000  48.7500 Du        
   1886 ****       187.2500  10.0000  49.0000 Du        
   1887 ****       187.2500  10.0000  49.2500 Du        
   1888 ****       187.2500  10.0000  49.5000 Du        
   1889 ****       187.2500  10.2500  48.7500 Du        
   1890 ****       187.2500  10.2500  49.0000 Du        
   1891 ****       187.2500  10.2500  49.2500 Du        
   1892 ****       187.2500  10.2500  49.5000 Du        
   1893 ****       187.2500  10.5000  49.0000 Du        
   1894 ****       187.2500  10.5000  49.2500 Du        
   1895 ****       187.2500  10.5000  52.2500 Du        
   1896 ****       187.2500  10.7500  51.7500 Du        
   1897 ****       187.2500  10.7500  52.0000 Du        
   1898 ****       187.2500  10.7500  52.2500 Du        
   1899 ****       187.2500  10.7500  52.5000 Du        
   1900 ****       187.2500  11.0000  51.5000 Du        
   1901 ****       187.2500  11.0000  51.7500 Du        
   1902 ****       187.2500  11.0000  52.0000 Du        
   1903 ****       187.2500  11.0000  52.2500 Du        
   1904 ****       187.2500  11.2500  51.5000 Du        
   1905 ****       187.2500  11.2500  51.7500 Du        
   1906 ****       187.2500  11.2500  52.0000 Du        
   1907 ****       187.2500  11.5000  51.5000 Du        
   1908 ****       187.2500  12.0000  50.2500 Du        
   1909 ****       187.2500  12.2500  49.7500 Du        
   1910 ****       187.2500  12.2500  50.0000 Du        
   1911 ****       187.2500  12.2500  50.2500 Du        
   1912 ****       187.2500  12.2500  50.5000 Du        
   1913 ****       187.2500  12.2500  50.7500 Du        
   1914 ****       187.2500  12.5000  49.5000 Du        
   1915 ****       187.2500  12.5000  49.7500 Du        
   1916 ****       187.2500  12.5000  50.0000 Du        
   1917 ****       187.2500  12.5000  50.2500 Du        
   1918 ****       187.2500  12.5000  50.5000 Du        
   1919 ****       187.2500  12.7500  49.5000 Du        
   1920 ****       187.2500  12.7500  49.7500 Du        
   1921 ****       187.2500  12.7500  50.0000 Du        
   1922 ****       187.2500  12.7500  50.2500 Du        
   1923 ****       187.2500  12.7500  50.5000 Du        
   1924 ****       187.2500  13.0000  49.5000 Du        
   1925 ****       187.2500  13.0000  49.7500 Du        
   1926 ****       187.2500  13.0000  50.0000 Du        
   1927 ****       187.2500  13.0000  50.2500 Du        
   1928 ****       187.2500  13.2500  49.2500 Du        
   1929 ****       187.2500  13.2500  49.5000 Du        
   1930 ****       187.2500  13.2500  49.7500 Du        
   1931 ****       187.2500  13.2500  50.0000 Du        
   1932 ****       187.2500  13.2500  50.2500 Du        
   1933 ****       187.2500  13.5000  49.2500 Du        
   1934 ****       187.2500  13.5000  49.5000 Du        
   1935 ****       187.2500  13.5000  49.7500 Du        
   1936 ****       187.2500  13.5000  50.0000 Du        
   1937 ****       187.2500  13.5000  50.2500 Du        
   1938 ****       187.2500  13.7500  49.2500 Du        
   1939 ****       187.2500  13.7500  49.5000 Du        
   1940 ****       187.2500  13.7500  49.7500 Du        
   1941 ****       187.2500  13.7500  50.0000 Du        
   1942 ****       187.2500  13.7500  50.2500 Du        
   1943 ****       187.2500  14.0000  49.0000 Du        
   1944 ****       187.2500  14.0000  49.2500 Du        
   1945 ****       187.2500  14.0000  49.5000 Du        
   1946 ****       187.2500  14.0000  49.7500 Du        
   1947 ****       187.2500  14.0000  50.0000 Du        
   1948 ****       187.2500  14.2500  49.0000 Du        
   1949 ****       187.2500  14.2500  49.2500 Du        
   1950 ****       187.2500  14.2500  49.5000 Du        
   1951 ****       187.2500  14.2500  49.7500 Du        
   1952 ****       187.2500  14.2500  50.0000 Du        
   1953 ****       187.2500  14.5000  49.0000 Du        
   1954 ****       187.2500  14.5000  49.2500 Du        
   1955 ****       187.2500  14.5000  49.5000 Du        
   1956 ****       187.2500  14.5000  49.7500 Du        
   1957 ****       187.2500  14.5000  50.0000 Du        
   1958 ****       187.2500  14.7500  48.7500 Du        
   1959 ****       187.2500  14.7500  49.0000 Du        
   1960 ****       187.2500  14.7500  49.2500 Du        
   1961 ****       187.2500  14.7500  49.5000 Du        
   1962 ****       187.2500  14.7500  49.7500 Du        
   1963 ****       187.2500  14.7500  50.0000 Du        
   1964 ****       187.2500  15.0000  48.7500 Du        
   1965 ****       187.2500  15.0000  49.0000 Du        
   1966 ****       187.2500  15.0000  49.2500 Du        
   1967 ****       187.2500  15.0000  49.5000 Du        
   1968 ****       187.2500  15.0000  49.7500 Du        
   1969 ****       187.2500  15.2500  48.7500 Du        
   1970 ****       187.2500  15.2500  49.0000 Du        
   1971 ****       187.2500  15.2500  49.2500 Du        
   1972 ****       187.2500  16.2500  45.0000 Du        
   1973 ****       187.2500  16.2500  45.2500 Du        
   1974 ****       187.2500  16.5000  44.7500 Du        
   1975 ****       187.2500  16.5000  45.0000 Du        
   1976 ****       187.2500  16.5000  45.2500 Du        
   1977 ****       187.2500  16.5000  45.5000 Du        
   1978 ****       187.2500  16.5000  45.7500 Du        
   1979 ****       187.2500  16.5000  46.0000 Du        
   1980 ****       187.2500  16.7500  44.5000 Du        
   1981 ****       187.2500  16.7500  44.7500 Du        
   1982 ****       187.2500  16.7500  45.0000 Du        
   1983 ****       187.2500  16.7500  45.2500 Du        
   1984 ****       187.2500  16.7500  45.5000 Du        
   1985 ****       187.2500  16.7500  45.7500 Du        
   1986 ****       187.2500  16.7500  46.0000 Du        
   1987 ****       187.2500  16.7500  46.2500 Du        
   1988 ****       187.2500  16.7500  46.7500 Du        
   1989 ****       187.2500  16.7500  47.0000 Du        
   1990 ****       187.2500  17.0000  44.5000 Du        
   1991 ****       187.2500  17.0000  44.7500 Du        
   1992 ****       187.2500  17.0000  45.0000 Du        
   1993 ****       187.2500  17.0000  45.2500 Du        
   1994 ****       187.2500  17.0000  45.5000 Du        
   1995 ****       187.2500  17.0000  45.7500 Du        
   1996 ****       187.2500  17.0000  46.0000 Du        
   1997 ****       187.2500  17.0000  46.2500 Du        
   1998 ****       187.2500  17.0000  46.5000 Du        
   1999 ****       187.2500  17.0000  46.7500 Du        
   2000 ****       187.2500  17.0000  47.0000 Du        
   2001 ****       187.2500  17.2500  44.5000 Du        
   2002 ****       187.2500  17.2500  44.7500 Du        
   2003 ****       187.2500  17.2500  45.0000 Du        
   2004 ****       187.2500  17.2500  45.2500 Du        
   2005 ****       187.2500  17.2500  45.5000 Du        
   2006 ****       187.2500  17.2500  45.7500 Du        
   2007 ****       187.2500  17.2500  46.0000 Du        
   2008 ****       187.2500  17.2500  46.2500 Du        
   2009 ****       187.2500  17.2500  46.7500 Du        
   2010 ****       187.2500  17.5000  44.5000 Du        
   2011 ****       187.2500  17.5000  44.7500 Du        
   2012 ****       187.2500  17.5000  45.0000 Du        
   2013 ****       187.2500  17.5000  45.2500 Du        
   2014 ****       187.2500  17.5000  45.5000 Du        
   2015 ****       187.2500  17.5000  45.7500 Du        
   2016 ****       187.2500  17.5000  46.0000 Du        
   2017 ****       187.2500  17.7500  44.5000 Du        
   2018 ****       187.2500  17.7500  44.7500 Du        
   2019 ****       187.2500  17.7500  45.0000 Du        
   2020 ****       187.2500  17.7500  45.2500 Du        
   2021 ****       187.2500  17.7500  45.5000 Du        
   2022 ****       187.2500  17.7500  45.7500 Du        
   2023 ****       187.2500  17.7500  52.7500 Du        
   2024 ****       187.2500  17.7500  53.0000 Du        
   2025 ****       187.2500  18.0000  44.7500 Du        
   2026 ****       187.2500  18.0000  45.0000 Du        
   2027 ****       187.2500  18.0000  45.2500 Du        
   2028 ****       187.2500  18.0000  52.5000 Du        
   2029 ****       187.2500  18.0000  52.7500 Du        
   2030 ****       187.2500  18.0000  53.0000 Du        
   2031 ****       187.2500  18.0000  53.2500 Du        
   2032 ****       187.2500  18.2500  52.2500 Du        
   2033 ****       187.2500  18.2500  52.5000 Du        
   2034 ****       187.2500  18.2500  52.7500 Du        
   2035 ****       187.2500  18.2500  53.0000 Du        
   2036 ****       187.2500  18.2500  53.2500 Du        
   2037 ****       187.2500  18.2500  53.5000 Du        
   2038 ****       187.2500  18.5000  52.0000 Du        
   2039 ****       187.2500  18.5000  52.2500 Du        
   2040 ****       187.2500  18.5000  52.5000 Du        
   2041 ****       187.2500  18.5000  52.7500 Du        
   2042 ****       187.2500  18.5000  53.0000 Du        
   2043 ****       187.2500  18.5000  53.2500 Du        
   2044 ****       187.2500  18.7500  51.7500 Du        
   2045 ****       187.2500  18.7500  52.0000 Du        
   2046 ****       187.2500  18.7500  52.2500 Du        
   2047 ****       187.2500  18.7500  52.5000 Du        
   2048 ****       187.2500  18.7500  52.7500 Du        
   2049 ****       187.2500  18.7500  53.0000 Du        
   2050 ****       187.2500  19.0000  51.2500 Du        
   2051 ****       187.2500  19.0000  51.5000 Du        
   2052 ****       187.2500  19.0000  51.7500 Du        
   2053 ****       187.2500  19.0000  52.0000 Du        
   2054 ****       187.2500  19.0000  52.2500 Du        
   2055 ****       187.2500  19.0000  52.5000 Du        
   2056 ****       187.2500  19.0000  52.7500 Du        
   2057 ****       187.2500  19.2500  51.0000 Du        
   2058 ****       187.2500  19.2500  51.2500 Du        
   2059 ****       187.2500  19.2500  51.5000 Du        
   2060 ****       187.2500  19.2500  51.7500 Du        
   2061 ****       187.2500  19.2500  52.0000 Du        
   2062 ****       187.2500  19.2500  52.2500 Du        
   2063 ****       187.2500  19.2500  52.5000 Du        
   2064 ****       187.2500  19.2500  52.7500 Du        
   2065 ****       187.2500  19.5000  50.7500 Du        
   2066 ****       187.2500  19.5000  51.0000 Du        
   2067 ****       187.2500  19.5000  51.2500 Du        
   2068 ****       187.2500  19.5000  51.5000 Du        
   2069 ****       187.2500  19.5000  51.7500 Du        
   2070 ****       187.2500  19.5000  52.0000 Du        
   2071 ****       187.2500  19.5000  52.2500 Du        
   2072 ****       187.2500  19.5000  52.5000 Du        
   2073 ****       187.2500  19.7500  50.2500 Du        
   2074 ****       187.2500  19.7500  50.5000 Du        
   2075 ****       187.2500  19.7500  50.7500 Du        
   2076 ****       187.2500  19.7500  51.0000 Du        
   2077 ****       187.2500  19.7500  51.2500 Du        
   2078 ****       187.2500  19.7500  51.5000 Du        
   2079 ****       187.2500  19.7500  51.7500 Du        
   2080 ****       187.2500  19.7500  52.0000 Du        
   2081 ****       187.2500  19.7500  52.2500 Du        
   2082 ****       187.2500  19.7500  52.5000 Du        
   2083 ****       187.2500  20.0000  50.2500 Du        
   2084 ****       187.2500  20.0000  50.5000 Du        
   2085 ****       187.2500  20.0000  50.7500 Du        
   2086 ****       187.2500  20.0000  51.0000 Du        
   2087 ****       187.2500  20.0000  51.2500 Du        
   2088 ****       187.2500  20.0000  51.5000 Du        
   2089 ****       187.2500  20.0000  51.7500 Du        
   2090 ****       187.2500  20.0000  52.0000 Du        
   2091 ****       187.2500  20.0000  52.2500 Du        
   2092 ****       187.2500  20.2500  50.2500 Du        
   2093 ****       187.2500  20.2500  50.5000 Du        
   2094 ****       187.2500  20.2500  50.7500 Du        
   2095 ****       187.2500  20.2500  51.0000 Du        
   2096 ****       187.2500  20.2500  51.2500 Du        
   2097 ****       187.2500  20.2500  51.5000 Du        
   2098 ****       187.2500  20.2500  51.7500 Du        
   2099 ****       187.2500  20.2500  52.0000 Du        
   2100 ****       187.2500  20.2500  52.2500 Du        
   2101 ****       187.2500  20.5000  50.2500 Du        
   2102 ****       187.2500  20.5000  50.5000 Du        
   2103 ****       187.2500  20.5000  50.7500 Du        
   2104 ****       187.2500  20.5000  51.0000 Du        
   2105 ****       187.2500  20.5000  51.2500 Du        
   2106 ****       187.2500  20.5000  51.5000 Du        
   2107 ****       187.2500  20.5000  51.7500 Du        
   2108 ****       187.2500  20.5000  52.0000 Du        
   2109 ****       187.2500  20.7500  50.0000 Du        
   2110 ****       187.2500  20.7500  50.2500 Du        
   2111 ****       187.2500  20.7500  50.5000 Du        
   2112 ****       187.2500  20.7500  50.7500 Du        
   2113 ****       187.2500  20.7500  51.0000 Du        
   2114 ****       187.2500  20.7500  51.2500 Du        
   2115 ****       187.2500  20.7500  51.5000 Du        
   2116 ****       187.2500  20.7500  51.7500 Du        
   2117 ****       187.2500  20.7500  52.0000 Du        
   2118 ****       187.2500  21.0000  50.0000 Du        
   2119 ****       187.2500  21.0000  50.2500 Du        
   2120 ****       187.2500  21.0000  50.5000 Du        
   2121 ****       187.2500  21.0000  50.7500 Du        
   2122 ****       187.2500  21.0000  51.0000 Du        
   2123 ****       187.2500  21.0000  51.2500 Du        
   2124 ****       187.2500  21.0000  51.5000 Du        
   2125 ****       187.2500  21.0000  51.7500 Du        
   2126 ****       187.2500  21.2500  50.0000 Du        
   2127 ****       187.2500  21.2500  50.2500 Du        
   2128 ****       187.2500  21.2500  50.5000 Du        
   2129 ****       187.2500  21.2500  50.7500 Du        
   2130 ****       187.2500  21.2500  51.0000 Du        
   2131 ****       187.2500  21.2500  51.2500 Du        
   2132 ****       187.2500  21.2500  51.5000 Du        
   2133 ****       187.2500  21.5000  49.7500 Du        
   2134 ****       187.2500  21.5000  50.0000 Du        
   2135 ****       187.2500  21.5000  50.2500 Du        
   2136 ****       187.2500  21.5000  50.5000 Du        
   2137 ****       187.2500  21.5000  50.7500 Du        
   2138 ****       187.2500  21.5000  51.0000 Du        
   2139 ****       187.2500  21.5000  51.2500 Du        
   2140 ****       187.2500  21.7500  49.7500 Du        
   2141 ****       187.2500  21.7500  50.0000 Du        
   2142 ****       187.2500  21.7500  50.2500 Du        
   2143 ****       187.2500  21.7500  50.5000 Du        
   2144 ****       187.2500  21.7500  50.7500 Du        
   2145 ****       187.2500  21.7500  51.0000 Du        
   2146 ****       187.2500  22.0000  49.7500 Du        
   2147 ****       187.2500  22.0000  50.0000 Du        
   2148 ****       187.2500  22.0000  50.2500 Du        
   2149 ****       187.2500  22.0000  50.5000 Du        
   2150 ****       187.2500  22.0000  50.7500 Du        
   2151 ****       187.2500  22.2500  50.0000 Du        
   2152 ****       187.2500  22.2500  50.2500 Du        
   2153 ****       187.5000   9.2500  48.2500 Du        
   2154 ****       187.5000   9.2500  48.5000 Du        
   2155 ****       187.5000   9.2500  48.7500 Du        
   2156 ****       187.5000   9.2500  49.0000 Du        
   2157 ****       187.5000   9.2500  49.2500 Du        
   2158 ****       187.5000   9.2500  49.5000 Du        
   2159 ****       187.5000   9.2500  49.7500 Du        
   2160 ****       187.5000   9.5000  48.0000 Du        
   2161 ****       187.5000   9.5000  48.2500 Du        
   2162 ****       187.5000   9.5000  48.5000 Du        
   2163 ****       187.5000   9.5000  48.7500 Du        
   2164 ****       187.5000   9.5000  49.0000 Du        
   2165 ****       187.5000   9.5000  49.2500 Du        
   2166 ****       187.5000   9.5000  49.5000 Du        
   2167 ****       187.5000   9.5000  49.7500 Du        
   2168 ****       187.5000   9.5000  50.0000 Du        
   2169 ****       187.5000   9.7500  48.0000 Du        
   2170 ****       187.5000   9.7500  48.2500 Du        
   2171 ****       187.5000   9.7500  48.5000 Du        
   2172 ****       187.5000   9.7500  48.7500 Du        
   2173 ****       187.5000   9.7500  49.0000 Du        
   2174 ****       187.5000   9.7500  49.2500 Du        
   2175 ****       187.5000   9.7500  49.5000 Du        
   2176 ****       187.5000   9.7500  49.7500 Du        
   2177 ****       187.5000   9.7500  50.0000 Du        
   2178 ****       187.5000   9.7500  50.2500 Du        
   2179 ****       187.5000  10.0000  48.2500 Du        
   2180 ****       187.5000  10.0000  48.5000 Du        
   2181 ****       187.5000  10.0000  48.7500 Du        
   2182 ****       187.5000  10.0000  49.0000 Du        
   2183 ****       187.5000  10.0000  49.2500 Du        
   2184 ****       187.5000  10.0000  49.5000 Du        
   2185 ****       187.5000  10.0000  49.7500 Du        
   2186 ****       187.5000  10.0000  50.0000 Du        
   2187 ****       187.5000  10.0000  50.2500 Du        
   2188 ****       187.5000  10.0000  50.5000 Du        
   2189 ****       187.5000  10.0000  50.7500 Du        
   2190 ****       187.5000  10.0000  51.5000 Du        
   2191 ****       187.5000  10.0000  51.7500 Du        
   2192 ****       187.5000  10.0000  52.0000 Du        
   2193 ****       187.5000  10.0000  52.2500 Du        
   2194 ****       187.5000  10.2500  48.5000 Du        
   2195 ****       187.5000  10.2500  48.7500 Du        
   2196 ****       187.5000  10.2500  49.0000 Du        
   2197 ****       187.5000  10.2500  49.2500 Du        
   2198 ****       187.5000  10.2500  49.5000 Du        
   2199 ****       187.5000  10.2500  49.7500 Du        
   2200 ****       187.5000  10.2500  50.0000 Du        
   2201 ****       187.5000  10.2500  50.2500 Du        
   2202 ****       187.5000  10.2500  50.5000 Du        
   2203 ****       187.5000  10.2500  50.7500 Du        
   2204 ****       187.5000  10.2500  51.0000 Du        
   2205 ****       187.5000  10.2500  51.2500 Du        
   2206 ****       187.5000  10.2500  51.5000 Du        
   2207 ****       187.5000  10.2500  51.7500 Du        
   2208 ****       187.5000  10.2500  52.0000 Du        
   2209 ****       187.5000  10.2500  52.2500 Du        
   2210 ****       187.5000  10.2500  52.5000 Du        
   2211 ****       187.5000  10.5000  48.7500 Du        
   2212 ****       187.5000  10.5000  49.0000 Du        
   2213 ****       187.5000  10.5000  49.2500 Du        
   2214 ****       187.5000  10.5000  49.5000 Du        
   2215 ****       187.5000  10.5000  49.7500 Du        
   2216 ****       187.5000  10.5000  50.0000 Du        
   2217 ****       187.5000  10.5000  50.2500 Du        
   2218 ****       187.5000  10.5000  50.5000 Du        
   2219 ****       187.5000  10.5000  50.7500 Du        
   2220 ****       187.5000  10.5000  51.0000 Du        
   2221 ****       187.5000  10.5000  51.2500 Du        
   2222 ****       187.5000  10.5000  51.5000 Du        
   2223 ****       187.5000  10.5000  51.7500 Du        
   2224 ****       187.5000  10.5000  52.0000 Du        
   2225 ****       187.5000  10.5000  52.2500 Du        
   2226 ****       187.5000  10.5000  52.5000 Du        
   2227 ****       187.5000  10.5000  52.7500 Du        
   2228 ****       187.5000  10.7500  49.0000 Du        
   2229 ****       187.5000  10.7500  49.2500 Du        
   2230 ****       187.5000  10.7500  49.5000 Du        
   2231 ****       187.5000  10.7500  49.7500 Du        
   2232 ****       187.5000  10.7500  50.0000 Du        
   2233 ****       187.5000  10.7500  50.2500 Du        
   2234 ****       187.5000  10.7500  50.5000 Du        
   2235 ****       187.5000  10.7500  50.7500 Du        
   2236 ****       187.5000  10.7500  51.0000 Du        
   2237 ****       187.5000  10.7500  51.2500 Du        
   2238 ****       187.5000  10.7500  51.5000 Du        
   2239 ****       187.5000  10.7500  51.7500 Du        
   2240 ****       187.5000  10.7500  52.0000 Du        
   2241 ****       187.5000  10.7500  52.2500 Du        
   2242 ****       187.5000  10.7500  52.5000 Du        
   2243 ****       187.5000  11.0000  49.0000 Du        
   2244 ****       187.5000  11.0000  49.2500 Du        
   2245 ****       187.5000  11.0000  49.5000 Du        
   2246 ****       187.5000  11.0000  49.7500 Du        
   2247 ****       187.5000  11.0000  50.0000 Du        
   2248 ****       187.5000  11.0000  50.2500 Du        
   2249 ****       187.5000  11.0000  50.5000 Du        
   2250 ****       187.5000  11.0000  50.7500 Du        
   2251 ****       187.5000  11.0000  51.0000 Du        
   2252 ****       187.5000  11.0000  51.2500 Du        
   2253 ****       187.5000  11.0000  51.5000 Du        
   2254 ****       187.5000  11.0000  51.7500 Du        
   2255 ****       187.5000  11.0000  52.0000 Du        
   2256 ****       187.5000  11.0000  52.2500 Du        
   2257 ****       187.5000  11.2500  49.2500 Du        
   2258 ****       187.5000  11.2500  49.5000 Du        
   2259 ****       187.5000  11.2500  49.7500 Du        
   2260 ****       187.5000  11.2500  50.0000 Du        
   2261 ****       187.5000  11.2500  50.2500 Du        
   2262 ****       187.5000  11.2500  50.5000 Du        
   2263 ****       187.5000  11.2500  50.7500 Du        
   2264 ****       187.5000  11.2500  51.0000 Du        
   2265 ****       187.5000  11.2500  51.2500 Du        
   2266 ****       187.5000  11.2500  51.5000 Du        
   2267 ****       187.5000  11.2500  51.7500 Du        
   2268 ****       187.5000  11.2500  52.0000 Du        
   2269 ****       187.5000  11.5000  49.5000 Du        
   2270 ****       187.5000  11.5000  49.7500 Du        
   2271 ****       187.5000  11.5000  50.0000 Du        
   2272 ****       187.5000  11.5000  50.2500 Du        
   2273 ****       187.5000  11.5000  50.5000 Du        
   2274 ****       187.5000  11.5000  50.7500 Du        
   2275 ****       187.5000  11.5000  51.0000 Du        
   2276 ****       187.5000  11.5000  51.2500 Du        
   2277 ****       187.5000  11.5000  51.5000 Du        
   2278 ****       187.5000  11.5000  51.7500 Du        
   2279 ****       187.5000  11.7500  49.5000 Du        
   2280 ****       187.5000  11.7500  49.7500 Du        
   2281 ****       187.5000  11.7500  50.0000 Du        
   2282 ****       187.5000  11.7500  50.2500 Du        
   2283 ****       187.5000  11.7500  50.5000 Du        
   2284 ****       187.5000  11.7500  50.7500 Du        
   2285 ****       187.5000  11.7500  51.0000 Du        
   2286 ****       187.5000  11.7500  51.2500 Du        
   2287 ****       187.5000  12.0000  49.5000 Du        
   2288 ****       187.5000  12.0000  49.7500 Du        
   2289 ****       187.5000  12.0000  50.0000 Du        
   2290 ****       187.5000  12.0000  50.2500 Du        
   2291 ****       187.5000  12.0000  50.5000 Du        
   2292 ****       187.5000  12.0000  50.7500 Du        
   2293 ****       187.5000  12.0000  51.0000 Du        
   2294 ****       187.5000  12.2500  49.5000 Du        
   2295 ****       187.5000  12.2500  49.7500 Du        
   2296 ****       187.5000  12.2500  50.0000 Du        
   2297 ****       187.5000  12.2500  50.2500 Du        
   2298 ****       187.5000  12.2500  50.5000 Du        
   2299 ****       187.5000  12.2500  50.7500 Du        
   2300 ****       187.5000  12.5000  49.5000 Du        
   2301 ****       187.5000  12.5000  49.7500 Du        
   2302 ****       187.5000  12.5000  50.0000 Du        
   2303 ****       187.5000  12.5000  50.2500 Du        
   2304 ****       187.5000  12.5000  50.5000 Du        
   2305 ****       187.5000  12.7500  49.5000 Du        
   2306 ****       187.5000  12.7500  49.7500 Du        
   2307 ****       187.5000  12.7500  50.0000 Du        
   2308 ****       187.5000  12.7500  50.2500 Du        
   2309 ****       187.5000  12.7500  50.5000 Du        
   2310 ****       187.5000  13.0000  49.5000 Du        
   2311 ****       187.5000  13.0000  49.7500 Du        
   2312 ****       187.5000  13.0000  50.0000 Du        
   2313 ****       187.5000  13.0000  50.2500 Du        
   2314 ****       187.5000  13.2500  49.2500 Du        
   2315 ****       187.5000  13.2500  49.5000 Du        
   2316 ****       187.5000  13.2500  49.7500 Du        
   2317 ****       187.5000  13.2500  50.0000 Du        
   2318 ****       187.5000  13.2500  50.2500 Du        
   2319 ****       187.5000  13.5000  49.2500 Du        
   2320 ****       187.5000  13.5000  49.5000 Du        
   2321 ****       187.5000  13.5000  49.7500 Du        
   2322 ****       187.5000  13.5000  50.0000 Du        
   2323 ****       187.5000  13.5000  50.2500 Du        
   2324 ****       187.5000  13.7500  49.2500 Du        
   2325 ****       187.5000  13.7500  49.5000 Du        
   2326 ****       187.5000  13.7500  49.7500 Du        
   2327 ****       187.5000  13.7500  50.0000 Du        
   2328 ****       187.5000  14.0000  49.2500 Du        
   2329 ****       187.5000  14.0000  49.5000 Du        
   2330 ****       187.5000  14.0000  49.7500 Du        
   2331 ****       187.5000  14.0000  50.0000 Du        
   2332 ****       187.5000  14.2500  49.0000 Du        
   2333 ****       187.5000  14.2500  49.2500 Du        
   2334 ****       187.5000  14.2500  49.5000 Du        
   2335 ****       187.5000  14.2500  49.7500 Du        
   2336 ****       187.5000  14.2500  50.0000 Du        
   2337 ****       187.5000  14.5000  49.0000 Du        
   2338 ****       187.5000  14.5000  49.2500 Du        
   2339 ****       187.5000  14.5000  49.5000 Du        
   2340 ****       187.5000  14.5000  49.7500 Du        
   2341 ****       187.5000  14.7500  49.0000 Du        
   2342 ****       187.5000  14.7500  49.2500 Du        
   2343 ****       187.5000  14.7500  49.5000 Du        
   2344 ****       187.5000  15.0000  48.7500 Du        
   2345 ****       187.5000  15.0000  49.0000 Du        
   2346 ****       187.5000  15.0000  49.2500 Du        
   2347 ****       187.5000  15.2500  48.7500 Du        
   2348 ****       187.5000  15.2500  49.0000 Du        
   2349 ****       187.5000  16.5000  45.0000 Du        
   2350 ****       187.5000  16.5000  45.2500 Du        
   2351 ****       187.5000  16.5000  45.5000 Du        
   2352 ****       187.5000  16.5000  45.7500 Du        
   2353 ****       187.5000  16.5000  46.2500 Du        
   2354 ****       187.5000  16.7500  44.7500 Du        
   2355 ****       187.5000  16.7500  45.0000 Du        
   2356 ****       187.5000  16.7500  45.2500 Du        
   2357 ****       187.5000  16.7500  45.5000 Du        
   2358 ****       187.5000  16.7500  45.7500 Du        
   2359 ****       187.5000  16.7500  46.0000 Du        
   2360 ****       187.5000  16.7500  46.2500 Du        
   2361 ****       187.5000  17.0000  44.7500 Du        
   2362 ****       187.5000  17.0000  45.0000 Du        
   2363 ****       187.5000  17.0000  45.2500 Du        
   2364 ****       187.5000  17.0000  45.5000 Du        
   2365 ****       187.5000  17.0000  45.7500 Du        
   2366 ****       187.5000  17.0000  46.0000 Du        
   2367 ****       187.5000  17.0000  46.2500 Du        
   2368 ****       187.5000  17.2500  44.5000 Du        
   2369 ****       187.5000  17.2500  44.7500 Du        
   2370 ****       187.5000  17.2500  45.0000 Du        
   2371 ****       187.5000  17.2500  45.2500 Du        
   2372 ****       187.5000  17.2500  45.5000 Du        
   2373 ****       187.5000  17.2500  45.7500 Du        
   2374 ****       187.5000  17.2500  46.0000 Du        
   2375 ****       187.5000  17.5000  44.7500 Du        
   2376 ****       187.5000  17.5000  45.0000 Du        
   2377 ****       187.5000  17.5000  45.2500 Du        
   2378 ****       187.5000  17.7500  44.7500 Du        
   2379 ****       187.5000  17.7500  45.0000 Du        
   2380 ****       187.5000  18.0000  52.7500 Du        
   2381 ****       187.5000  18.0000  53.0000 Du        
   2382 ****       187.5000  18.0000  53.2500 Du        
   2383 ****       187.5000  18.2500  52.7500 Du        
   2384 ****       187.5000  18.2500  53.0000 Du        
   2385 ****       187.5000  18.2500  53.2500 Du        
   2386 ****       187.5000  18.5000  52.5000 Du        
   2387 ****       187.5000  18.5000  52.7500 Du        
   2388 ****       187.5000  18.5000  53.0000 Du        
   2389 ****       187.5000  18.5000  53.2500 Du        
   2390 ****       187.5000  18.7500  52.2500 Du        
   2391 ****       187.5000  18.7500  52.5000 Du        
   2392 ****       187.5000  18.7500  52.7500 Du        
   2393 ****       187.5000  18.7500  53.0000 Du        
   2394 ****       187.5000  19.0000  51.7500 Du        
   2395 ****       187.5000  19.0000  52.0000 Du        
   2396 ****       187.5000  19.0000  52.2500 Du        
   2397 ****       187.5000  19.0000  52.5000 Du        
   2398 ****       187.5000  19.0000  52.7500 Du        
   2399 ****       187.5000  19.2500  51.5000 Du        
   2400 ****       187.5000  19.2500  51.7500 Du        
   2401 ****       187.5000  19.2500  52.0000 Du        
   2402 ****       187.5000  19.2500  52.2500 Du        
   2403 ****       187.5000  19.2500  52.5000 Du        
   2404 ****       187.5000  19.5000  51.2500 Du        
   2405 ****       187.5000  19.5000  51.5000 Du        
   2406 ****       187.5000  19.5000  51.7500 Du        
   2407 ****       187.5000  19.5000  52.0000 Du        
   2408 ****       187.5000  19.5000  52.2500 Du        
   2409 ****       187.5000  19.5000  52.5000 Du        
   2410 ****       187.5000  19.7500  50.7500 Du        
   2411 ****       187.5000  19.7500  51.0000 Du        
   2412 ****       187.5000  19.7500  51.2500 Du        
   2413 ****       187.5000  19.7500  51.5000 Du        
   2414 ****       187.5000  19.7500  51.7500 Du        
   2415 ****       187.5000  19.7500  52.0000 Du        
   2416 ****       187.5000  19.7500  52.2500 Du        
   2417 ****       187.5000  20.0000  50.5000 Du        
   2418 ****       187.5000  20.0000  50.7500 Du        
   2419 ****       187.5000  20.0000  51.0000 Du        
   2420 ****       187.5000  20.0000  51.2500 Du        
   2421 ****       187.5000  20.0000  51.5000 Du        
   2422 ****       187.5000  20.0000  51.7500 Du        
   2423 ****       187.5000  20.0000  52.0000 Du        
   2424 ****       187.5000  20.0000  52.2500 Du        
   2425 ****       187.5000  20.2500  50.5000 Du        
   2426 ****       187.5000  20.2500  50.7500 Du        
   2427 ****       187.5000  20.2500  51.0000 Du        
   2428 ****       187.5000  20.2500  51.2500 Du        
   2429 ****       187.5000  20.2500  51.5000 Du        
   2430 ****       187.5000  20.2500  51.7500 Du        
   2431 ****       187.5000  20.2500  52.0000 Du        
   2432 ****       187.5000  20.5000  50.0000 Du        
   2433 ****       187.5000  20.5000  50.2500 Du        
   2434 ****       187.5000  20.5000  50.5000 Du        
   2435 ****       187.5000  20.5000  50.7500 Du        
   2436 ****       187.5000  20.5000  51.0000 Du        
   2437 ****       187.5000  20.5000  51.2500 Du        
   2438 ****       187.5000  20.5000  51.5000 Du        
   2439 ****       187.5000  20.5000  51.7500 Du        
   2440 ****       187.5000  20.7500  50.0000 Du        
   2441 ****       187.5000  20.7500  50.2500 Du        
   2442 ****       187.5000  20.7500  50.5000 Du        
   2443 ****       187.5000  20.7500  50.7500 Du        
   2444 ****       187.5000  20.7500  51.0000 Du        
   2445 ****       187.5000  20.7500  51.2500 Du        
   2446 ****       187.5000  20.7500  51.5000 Du        
   2447 ****       187.5000  20.7500  51.7500 Du        
   2448 ****       187.5000  21.0000  50.0000 Du        
   2449 ****       187.5000  21.0000  50.2500 Du        
   2450 ****       187.5000  21.0000  50.5000 Du        
   2451 ****       187.5000  21.0000  50.7500 Du        
   2452 ****       187.5000  21.0000  51.0000 Du        
   2453 ****       187.5000  21.0000  51.2500 Du        
   2454 ****       187.5000  21.0000  51.5000 Du        
   2455 ****       187.5000  21.2500  50.0000 Du        
   2456 ****       187.5000  21.2500  50.2500 Du        
   2457 ****       187.5000  21.2500  50.5000 Du        
   2458 ****       187.5000  21.2500  50.7500 Du        
   2459 ****       187.5000  21.2500  51.0000 Du        
   2460 ****       187.5000  21.2500  51.2500 Du        
   2461 ****       187.5000  21.5000  50.0000 Du        
   2462 ****       187.5000  21.5000  50.2500 Du        
   2463 ****       187.5000  21.5000  50.5000 Du        
   2464 ****       187.5000  21.5000  50.7500 Du        
   2465 ****       187.5000  21.5000  51.0000 Du        
   2466 ****       187.5000  21.7500  50.0000 Du        
   2467 ****       187.5000  21.7500  50.2500 Du        
   2468 ****       187.5000  21.7500  50.5000 Du        
   2469 ****       187.5000  21.7500  50.7500 Du        
   2470 ****       187.5000  22.0000  50.0000 Du        
   2471 ****       187.5000  22.0000  50.5000 Du        
   2472 ****       187.7500   9.0000  48.5000 Du        
   2473 ****       187.7500   9.0000  48.7500 Du        
   2474 ****       187.7500   9.0000  49.0000 Du        
   2475 ****       187.7500   9.0000  49.2500 Du        
   2476 ****       187.7500   9.0000  49.5000 Du        
   2477 ****       187.7500   9.0000  49.7500 Du        
   2478 ****       187.7500   9.0000  50.0000 Du        
   2479 ****       187.7500   9.0000  50.2500 Du        
   2480 ****       187.7500   9.0000  50.5000 Du        
   2481 ****       187.7500   9.0000  50.7500 Du        
   2482 ****       187.7500   9.0000  51.0000 Du        
   2483 ****       187.7500   9.0000  51.2500 Du        
   2484 ****       187.7500   9.0000  51.5000 Du        
   2485 ****       187.7500   9.2500  48.0000 Du        
   2486 ****       187.7500   9.2500  48.2500 Du        
   2487 ****       187.7500   9.2500  48.5000 Du        
   2488 ****       187.7500   9.2500  48.7500 Du        
   2489 ****       187.7500   9.2500  49.0000 Du        
   2490 ****       187.7500   9.2500  49.2500 Du        
   2491 ****       187.7500   9.2500  49.5000 Du        
   2492 ****       187.7500   9.2500  49.7500 Du        
   2493 ****       187.7500   9.2500  50.0000 Du        
   2494 ****       187.7500   9.2500  50.2500 Du        
   2495 ****       187.7500   9.2500  50.5000 Du        
   2496 ****       187.7500   9.2500  50.7500 Du        
   2497 ****       187.7500   9.2500  51.0000 Du        
   2498 ****       187.7500   9.2500  51.2500 Du        
   2499 ****       187.7500   9.2500  51.5000 Du        
   2500 ****       187.7500   9.2500  51.7500 Du        
   2501 ****       187.7500   9.5000  48.0000 Du        
   2502 ****       187.7500   9.5000  48.2500 Du        
   2503 ****       187.7500   9.5000  48.5000 Du        
   2504 ****       187.7500   9.5000  48.7500 Du        
   2505 ****       187.7500   9.5000  49.0000 Du        
   2506 ****       187.7500   9.5000  49.2500 Du        
   2507 ****       187.7500   9.5000  49.5000 Du        
   2508 ****       187.7500   9.5000  49.7500 Du        
   2509 ****       187.7500   9.5000  50.0000 Du        
   2510 ****       187.7500   9.5000  50.2500 Du        
   2511 ****       187.7500   9.5000  50.5000 Du        
   2512 ****       187.7500   9.5000  50.7500 Du        
   2513 ****       187.7500   9.5000  51.0000 Du        
   2514 ****       187.7500   9.5000  51.2500 Du        
   2515 ****       187.7500   9.5000  51.5000 Du        
   2516 ****       187.7500   9.5000  51.7500 Du        
   2517 ****       187.7500   9.5000  52.0000 Du        
   2518 ****       187.7500   9.7500  48.0000 Du        
   2519 ****       187.7500   9.7500  48.2500 Du        
   2520 ****       187.7500   9.7500  48.5000 Du        
   2521 ****       187.7500   9.7500  48.7500 Du        
   2522 ****       187.7500   9.7500  49.0000 Du        
   2523 ****       187.7500   9.7500  49.2500 Du        
   2524 ****       187.7500   9.7500  49.5000 Du        
   2525 ****       187.7500   9.7500  49.7500 Du        
   2526 ****       187.7500   9.7500  50.0000 Du        
   2527 ****       187.7500   9.7500  50.2500 Du        
   2528 ****       187.7500   9.7500  50.5000 Du        
   2529 ****       187.7500   9.7500  50.7500 Du        
   2530 ****       187.7500   9.7500  51.0000 Du        
   2531 ****       187.7500   9.7500  51.2500 Du        
   2532 ****       187.7500   9.7500  51.5000 Du        
   2533 ****       187.7500   9.7500  51.7500 Du        
   2534 ****       187.7500   9.7500  52.0000 Du        
   2535 ****       187.7500   9.7500  52.2500 Du        
   2536 ****       187.7500  10.0000  48.0000 Du        
   2537 ****       187.7500  10.0000  48.2500 Du        
   2538 ****       187.7500  10.0000  48.5000 Du        
   2539 ****       187.7500  10.0000  48.7500 Du        
   2540 ****       187.7500  10.0000  49.0000 Du        
   2541 ****       187.7500  10.0000  49.2500 Du        
   2542 ****       187.7500  10.0000  49.5000 Du        
   2543 ****       187.7500  10.0000  49.7500 Du        
   2544 ****       187.7500  10.0000  50.0000 Du        
   2545 ****       187.7500  10.0000  50.2500 Du        
   2546 ****       187.7500  10.0000  50.5000 Du        
   2547 ****       187.7500  10.0000  50.7500 Du        
   2548 ****       187.7500  10.0000  51.0000 Du        
   2549 ****       187.7500  10.0000  51.2500 Du        
   2550 ****       187.7500  10.0000  51.5000 Du        
   2551 ****       187.7500  10.0000  51.7500 Du        
   2552 ****       187.7500  10.0000  52.0000 Du        
   2553 ****       187.7500  10.0000  52.2500 Du        
   2554 ****       187.7500  10.0000  52.5000 Du        
   2555 ****       187.7500  10.2500  48.2500 Du        
   2556 ****       187.7500  10.2500  48.5000 Du        
   2557 ****       187.7500  10.2500  48.7500 Du        
   2558 ****       187.7500  10.2500  49.0000 Du        
   2559 ****       187.7500  10.2500  49.2500 Du        
   2560 ****       187.7500  10.2500  49.5000 Du        
   2561 ****       187.7500  10.2500  49.7500 Du        
   2562 ****       187.7500  10.2500  50.0000 Du        
   2563 ****       187.7500  10.2500  50.2500 Du        
   2564 ****       187.7500  10.2500  50.5000 Du        
   2565 ****       187.7500  10.2500  50.7500 Du        
   2566 ****       187.7500  10.2500  51.0000 Du        
   2567 ****       187.7500  10.2500  51.2500 Du        
   2568 ****       187.7500  10.2500  51.5000 Du        
   2569 ****       187.7500  10.2500  51.7500 Du        
   2570 ****       187.7500  10.2500  52.0000 Du        
   2571 ****       187.7500  10.2500  52.2500 Du        
   2572 ****       187.7500  10.2500  52.5000 Du        
   2573 ****       187.7500  10.2500  52.7500 Du        
   2574 ****       187.7500  10.5000  48.5000 Du        
   2575 ****       187.7500  10.5000  48.7500 Du        
   2576 ****       187.7500  10.5000  49.0000 Du        
   2577 ****       187.7500  10.5000  49.2500 Du        
   2578 ****       187.7500  10.5000  49.5000 Du        
   2579 ****       187.7500  10.5000  49.7500 Du        
   2580 ****       187.7500  10.5000  50.0000 Du        
   2581 ****       187.7500  10.5000  50.2500 Du        
   2582 ****       187.7500  10.5000  50.5000 Du        
   2583 ****       187.7500  10.5000  50.7500 Du        
   2584 ****       187.7500  10.5000  51.0000 Du        
   2585 ****       187.7500  10.5000  51.2500 Du        
   2586 ****       187.7500  10.5000  51.5000 Du        
   2587 ****       187.7500  10.5000  51.7500 Du        
   2588 ****       187.7500  10.5000  52.0000 Du        
   2589 ****       187.7500  10.5000  52.2500 Du        
   2590 ****       187.7500  10.5000  52.5000 Du        
   2591 ****       187.7500  10.5000  52.7500 Du        
   2592 ****       187.7500  10.7500  48.7500 Du        
   2593 ****       187.7500  10.7500  49.0000 Du        
   2594 ****       187.7500  10.7500  49.2500 Du        
   2595 ****       187.7500  10.7500  49.5000 Du        
   2596 ****       187.7500  10.7500  49.7500 Du        
   2597 ****       187.7500  10.7500  50.0000 Du        
   2598 ****       187.7500  10.7500  50.2500 Du        
   2599 ****       187.7500  10.7500  50.5000 Du        
   2600 ****       187.7500  10.7500  50.7500 Du        
   2601 ****       187.7500  10.7500  51.0000 Du        
   2602 ****       187.7500  10.7500  51.2500 Du        
   2603 ****       187.7500  10.7500  51.5000 Du        
   2604 ****       187.7500  10.7500  51.7500 Du        
   2605 ****       187.7500  10.7500  52.0000 Du        
   2606 ****       187.7500  10.7500  52.2500 Du        
   2607 ****       187.7500  10.7500  52.5000 Du        
   2608 ****       187.7500  10.7500  52.7500 Du        
   2609 ****       187.7500  11.0000  49.0000 Du        
   2610 ****       187.7500  11.0000  49.2500 Du        
   2611 ****       187.7500  11.0000  49.5000 Du        
   2612 ****       187.7500  11.0000  49.7500 Du        
   2613 ****       187.7500  11.0000  50.0000 Du        
   2614 ****       187.7500  11.0000  50.2500 Du        
   2615 ****       187.7500  11.0000  50.5000 Du        
   2616 ****       187.7500  11.0000  50.7500 Du        
   2617 ****       187.7500  11.0000  51.0000 Du        
   2618 ****       187.7500  11.0000  51.2500 Du        
   2619 ****       187.7500  11.0000  51.5000 Du        
   2620 ****       187.7500  11.0000  51.7500 Du        
   2621 ****       187.7500  11.0000  52.0000 Du        
   2622 ****       187.7500  11.0000  52.2500 Du        
   2623 ****       187.7500  11.0000  52.5000 Du        
   2624 ****       187.7500  11.2500  49.2500 Du        
   2625 ****       187.7500  11.2500  49.5000 Du        
   2626 ****       187.7500  11.2500  49.7500 Du        
   2627 ****       187.7500  11.2500  50.0000 Du        
   2628 ****       187.7500  11.2500  50.2500 Du        
   2629 ****       187.7500  11.2500  50.5000 Du        
   2630 ****       187.7500  11.2500  50.7500 Du        
   2631 ****       187.7500  11.2500  51.0000 Du        
   2632 ****       187.7500  11.2500  51.2500 Du        
   2633 ****       187.7500  11.2500  51.5000 Du        
   2634 ****       187.7500  11.2500  51.7500 Du        
   2635 ****       187.7500  11.2500  52.0000 Du        
   2636 ****       187.7500  11.2500  52.2500 Du        
   2637 ****       187.7500  11.5000  49.2500 Du        
   2638 ****       187.7500  11.5000  49.5000 Du        
   2639 ****       187.7500  11.5000  49.7500 Du        
   2640 ****       187.7500  11.5000  50.0000 Du        
   2641 ****       187.7500  11.5000  50.2500 Du        
   2642 ****       187.7500  11.5000  50.5000 Du        
   2643 ****       187.7500  11.5000  50.7500 Du        
   2644 ****       187.7500  11.5000  51.0000 Du        
   2645 ****       187.7500  11.5000  51.2500 Du        
   2646 ****       187.7500  11.5000  51.5000 Du        
   2647 ****       187.7500  11.5000  51.7500 Du        
   2648 ****       187.7500  11.7500  49.2500 Du        
   2649 ****       187.7500  11.7500  49.5000 Du        
   2650 ****       187.7500  11.7500  49.7500 Du        
   2651 ****       187.7500  11.7500  50.0000 Du        
   2652 ****       187.7500  11.7500  50.2500 Du        
   2653 ****       187.7500  11.7500  50.5000 Du        
   2654 ****       187.7500  11.7500  50.7500 Du        
   2655 ****       187.7500  11.7500  51.0000 Du        
   2656 ****       187.7500  11.7500  51.2500 Du        
   2657 ****       187.7500  11.7500  51.5000 Du        
   2658 ****       187.7500  12.0000  49.2500 Du        
   2659 ****       187.7500  12.0000  49.5000 Du        
   2660 ****       187.7500  12.0000  49.7500 Du        
   2661 ****       187.7500  12.0000  50.0000 Du        
   2662 ****       187.7500  12.0000  50.2500 Du        
   2663 ****       187.7500  12.0000  50.5000 Du        
   2664 ****       187.7500  12.0000  50.7500 Du        
   2665 ****       187.7500  12.0000  51.0000 Du        
   2666 ****       187.7500  12.0000  51.2500 Du        
   2667 ****       187.7500  12.2500  49.5000 Du        
   2668 ****       187.7500  12.2500  49.7500 Du        
   2669 ****       187.7500  12.2500  50.0000 Du        
   2670 ****       187.7500  12.2500  50.2500 Du        
   2671 ****       187.7500  12.2500  50.5000 Du        
   2672 ****       187.7500  12.2500  50.7500 Du        
   2673 ****       187.7500  12.2500  51.0000 Du        
   2674 ****       187.7500  12.5000  49.5000 Du        
   2675 ****       187.7500  12.5000  49.7500 Du        
   2676 ****       187.7500  12.5000  50.0000 Du        
   2677 ****       187.7500  12.5000  50.2500 Du        
   2678 ****       187.7500  12.5000  50.5000 Du        
   2679 ****       187.7500  12.5000  50.7500 Du        
   2680 ****       187.7500  12.7500  49.5000 Du        
   2681 ****       187.7500  12.7500  49.7500 Du        
   2682 ****       187.7500  12.7500  50.0000 Du        
   2683 ****       187.7500  12.7500  50.2500 Du        
   2684 ****       187.7500  12.7500  50.5000 Du        
   2685 ****       187.7500  13.0000  49.2500 Du        
   2686 ****       187.7500  13.0000  49.5000 Du        
   2687 ****       187.7500  13.0000  49.7500 Du        
   2688 ****       187.7500  13.0000  50.0000 Du        
   2689 ****       187.7500  13.0000  50.2500 Du        
   2690 ****       187.7500  13.2500  49.2500 Du        
   2691 ****       187.7500  13.2500  49.5000 Du        
   2692 ****       187.7500  13.2500  49.7500 Du        
   2693 ****       187.7500  13.2500  50.0000 Du        
   2694 ****       187.7500  13.2500  50.2500 Du        
   2695 ****       187.7500  13.5000  49.2500 Du        
   2696 ****       187.7500  13.5000  49.5000 Du        
   2697 ****       187.7500  13.5000  49.7500 Du        
   2698 ****       187.7500  13.5000  50.0000 Du        
   2699 ****       187.7500  13.7500  49.2500 Du        
   2700 ****       187.7500  13.7500  49.5000 Du        
   2701 ****       187.7500  13.7500  49.7500 Du        
   2702 ****       187.7500  13.7500  50.0000 Du        
   2703 ****       187.7500  14.0000  49.0000 Du        
   2704 ****       187.7500  14.0000  49.2500 Du        
   2705 ****       187.7500  14.0000  49.5000 Du        
   2706 ****       187.7500  14.0000  49.7500 Du        
   2707 ****       187.7500  14.0000  50.0000 Du        
   2708 ****       187.7500  14.2500  49.0000 Du        
   2709 ****       187.7500  14.2500  49.2500 Du        
   2710 ****       187.7500  14.2500  49.5000 Du        
   2711 ****       187.7500  14.2500  49.7500 Du        
   2712 ****       187.7500  14.5000  49.0000 Du        
   2713 ****       187.7500  14.5000  49.2500 Du        
   2714 ****       187.7500  14.5000  49.5000 Du        
   2715 ****       187.7500  14.7500  49.0000 Du        
   2716 ****       187.7500  14.7500  49.2500 Du        
   2717 ****       187.7500  15.0000  48.7500 Du        
   2718 ****       187.7500  15.0000  49.0000 Du        
   2719 ****       187.7500  15.2500  48.5000 Du        
   2720 ****       187.7500  15.2500  48.7500 Du        
   2721 ****       187.7500  16.2500  45.2500 Du        
   2722 ****       187.7500  16.5000  45.0000 Du        
   2723 ****       187.7500  16.5000  45.2500 Du        
   2724 ****       187.7500  16.5000  45.5000 Du        
   2725 ****       187.7500  16.5000  45.7500 Du        
   2726 ****       187.7500  16.5000  46.0000 Du        
   2727 ****       187.7500  16.5000  46.2500 Du        
   2728 ****       187.7500  16.7500  44.7500 Du        
   2729 ****       187.7500  16.7500  45.0000 Du        
   2730 ****       187.7500  16.7500  45.2500 Du        
   2731 ****       187.7500  16.7500  45.5000 Du        
   2732 ****       187.7500  16.7500  45.7500 Du        
   2733 ****       187.7500  16.7500  46.0000 Du        
   2734 ****       187.7500  16.7500  46.2500 Du        
   2735 ****       187.7500  16.7500  47.0000 Du        
   2736 ****       187.7500  17.0000  44.7500 Du        
   2737 ****       187.7500  17.0000  45.0000 Du        
   2738 ****       187.7500  17.0000  45.2500 Du        
   2739 ****       187.7500  17.0000  45.5000 Du        
   2740 ****       187.7500  17.0000  45.7500 Du        
   2741 ****       187.7500  17.0000  46.0000 Du        
   2742 ****       187.7500  17.0000  46.2500 Du        
   2743 ****       187.7500  17.2500  44.7500 Du        
   2744 ****       187.7500  17.2500  45.0000 Du        
   2745 ****       187.7500  17.2500  45.2500 Du        
   2746 ****       187.7500  17.2500  45.5000 Du        
   2747 ****       187.7500  17.2500  45.7500 Du        
   2748 ****       187.7500  17.2500  46.0000 Du        
   2749 ****       187.7500  17.2500  46.2500 Du        
   2750 ****       187.7500  17.5000  44.5000 Du        
   2751 ****       187.7500  17.5000  44.7500 Du        
   2752 ****       187.7500  17.5000  45.0000 Du        
   2753 ****       187.7500  17.5000  45.2500 Du        
   2754 ****       187.7500  17.7500  44.5000 Du        
   2755 ****       187.7500  17.7500  44.7500 Du        
   2756 ****       187.7500  17.7500  45.0000 Du        
   2757 ****       187.7500  17.7500  45.2500 Du        
   2758 ****       187.7500  18.0000  44.5000 Du        
   2759 ****       187.7500  18.0000  44.7500 Du        
   2760 ****       187.7500  18.2500  53.0000 Du        
   2761 ****       187.7500  18.2500  53.2500 Du        
   2762 ****       187.7500  18.5000  53.0000 Du        
   2763 ****       187.7500  18.7500  52.5000 Du        
   2764 ****       187.7500  18.7500  52.7500 Du        
   2765 ****       187.7500  18.7500  53.0000 Du        
   2766 ****       187.7500  19.0000  52.2500 Du        
   2767 ****       187.7500  19.0000  52.5000 Du        
   2768 ****       187.7500  19.0000  52.7500 Du        
   2769 ****       187.7500  19.2500  51.7500 Du        
   2770 ****       187.7500  19.2500  52.0000 Du        
   2771 ****       187.7500  19.2500  52.2500 Du        
   2772 ****       187.7500  19.2500  52.5000 Du        
   2773 ****       187.7500  19.5000  51.5000 Du        
   2774 ****       187.7500  19.5000  51.7500 Du        
   2775 ****       187.7500  19.5000  52.0000 Du        
   2776 ****       187.7500  19.5000  52.2500 Du        
   2777 ****       187.7500  19.5000  52.5000 Du        
   2778 ****       187.7500  19.7500  50.7500 Du        
   2779 ****       187.7500  19.7500  51.0000 Du        
   2780 ****       187.7500  19.7500  51.2500 Du        
   2781 ****       187.7500  19.7500  51.5000 Du        
   2782 ****       187.7500  19.7500  51.7500 Du        
   2783 ****       187.7500  19.7500  52.0000 Du        
   2784 ****       187.7500  19.7500  52.2500 Du        
   2785 ****       187.7500  20.0000  50.0000 Du        
   2786 ****       187.7500  20.0000  50.2500 Du        
   2787 ****       187.7500  20.0000  50.5000 Du        
   2788 ****       187.7500  20.0000  50.7500 Du        
   2789 ****       187.7500  20.0000  51.0000 Du        
   2790 ****       187.7500  20.0000  51.2500 Du        
   2791 ****       187.7500  20.0000  51.5000 Du        
   2792 ****       187.7500  20.0000  51.7500 Du        
   2793 ****       187.7500  20.0000  52.0000 Du        
   2794 ****       187.7500  20.0000  52.2500 Du        
   2795 ****       187.7500  20.2500  50.0000 Du        
   2796 ****       187.7500  20.2500  50.2500 Du        
   2797 ****       187.7500  20.2500  50.5000 Du        
   2798 ****       187.7500  20.2500  50.7500 Du        
   2799 ****       187.7500  20.2500  51.0000 Du        
   2800 ****       187.7500  20.2500  51.2500 Du        
   2801 ****       187.7500  20.2500  51.5000 Du        
   2802 ****       187.7500  20.2500  51.7500 Du        
   2803 ****       187.7500  20.2500  52.0000 Du        
   2804 ****       187.7500  20.5000  50.0000 Du        
   2805 ****       187.7500  20.5000  50.2500 Du        
   2806 ****       187.7500  20.5000  50.5000 Du        
   2807 ****       187.7500  20.5000  50.7500 Du        
   2808 ****       187.7500  20.5000  51.0000 Du        
   2809 ****       187.7500  20.5000  51.2500 Du        
   2810 ****       187.7500  20.5000  51.5000 Du        
   2811 ****       187.7500  20.5000  51.7500 Du        
   2812 ****       187.7500  20.7500  49.7500 Du        
   2813 ****       187.7500  20.7500  50.0000 Du        
   2814 ****       187.7500  20.7500  50.2500 Du        
   2815 ****       187.7500  20.7500  50.5000 Du        
   2816 ****       187.7500  20.7500  50.7500 Du        
   2817 ****       187.7500  20.7500  51.0000 Du        
   2818 ****       187.7500  20.7500  51.2500 Du        
   2819 ****       187.7500  20.7500  51.5000 Du        
   2820 ****       187.7500  21.0000  50.0000 Du        
   2821 ****       187.7500  21.0000  50.2500 Du        
   2822 ****       187.7500  21.0000  50.5000 Du        
   2823 ****       187.7500  21.0000  50.7500 Du        
   2824 ****       187.7500  21.0000  51.0000 Du        
   2825 ****       187.7500  21.0000  51.2500 Du        
   2826 ****       187.7500  21.2500  49.7500 Du        
   2827 ****       187.7500  21.2500  50.0000 Du        
   2828 ****       187.7500  21.2500  50.2500 Du        
   2829 ****       187.7500  21.2500  50.5000 Du        
   2830 ****       187.7500  21.2500  50.7500 Du        
   2831 ****       187.7500  21.2500  51.0000 Du        
   2832 ****       187.7500  21.5000  49.7500 Du        
   2833 ****       187.7500  21.5000  50.0000 Du        
   2834 ****       187.7500  21.5000  50.2500 Du        
   2835 ****       187.7500  21.5000  50.5000 Du        
   2836 ****       187.7500  21.5000  50.7500 Du        
   2837 ****       187.7500  21.7500  49.7500 Du        
   2838 ****       187.7500  21.7500  50.0000 Du        
   2839 ****       187.7500  21.7500  50.2500 Du        
   2840 ****       187.7500  21.7500  50.5000 Du        
   2841 ****       187.7500  22.0000  49.7500 Du        
   2842 ****       187.7500  22.0000  50.0000 Du        
   2843 ****       188.0000   8.5000  51.2500 Du        
   2844 ****       188.0000   8.7500  48.7500 Du        
   2845 ****       188.0000   8.7500  49.0000 Du        
   2846 ****       188.0000   8.7500  49.2500 Du        
   2847 ****       188.0000   8.7500  50.0000 Du        
   2848 ****       188.0000   8.7500  50.2500 Du        
   2849 ****       188.0000   8.7500  50.5000 Du        
   2850 ****       188.0000   8.7500  50.7500 Du        
   2851 ****       188.0000   8.7500  51.0000 Du        
   2852 ****       188.0000   8.7500  51.2500 Du        
   2853 ****       188.0000   8.7500  51.5000 Du        
   2854 ****       188.0000   8.7500  51.7500 Du        
   2855 ****       188.0000   9.0000  48.2500 Du        
   2856 ****       188.0000   9.0000  48.5000 Du        
   2857 ****       188.0000   9.0000  48.7500 Du        
   2858 ****       188.0000   9.0000  49.0000 Du        
   2859 ****       188.0000   9.0000  49.2500 Du        
   2860 ****       188.0000   9.0000  49.5000 Du        
   2861 ****       188.0000   9.0000  49.7500 Du        
   2862 ****       188.0000   9.0000  50.0000 Du        
   2863 ****       188.0000   9.0000  50.2500 Du        
   2864 ****       188.0000   9.0000  50.5000 Du        
   2865 ****       188.0000   9.0000  50.7500 Du        
   2866 ****       188.0000   9.0000  51.0000 Du        
   2867 ****       188.0000   9.0000  51.2500 Du        
   2868 ****       188.0000   9.0000  51.5000 Du        
   2869 ****       188.0000   9.0000  51.7500 Du        
   2870 ****       188.0000   9.0000  52.0000 Du        
   2871 ****       188.0000   9.2500  48.0000 Du        
   2872 ****       188.0000   9.2500  48.2500 Du        
   2873 ****       188.0000   9.2500  48.5000 Du        
   2874 ****       188.0000   9.2500  48.7500 Du        
   2875 ****       188.0000   9.2500  49.0000 Du        
   2876 ****       188.0000   9.2500  49.2500 Du        
   2877 ****       188.0000   9.2500  49.5000 Du        
   2878 ****       188.0000   9.2500  49.7500 Du        
   2879 ****       188.0000   9.2500  50.0000 Du        
   2880 ****       188.0000   9.2500  50.2500 Du        
   2881 ****       188.0000   9.2500  50.5000 Du        
   2882 ****       188.0000   9.2500  50.7500 Du        
   2883 ****       188.0000   9.2500  51.0000 Du        
   2884 ****       188.0000   9.2500  51.2500 Du        
   2885 ****       188.0000   9.2500  51.5000 Du        
   2886 ****       188.0000   9.2500  51.7500 Du        
   2887 ****       188.0000   9.2500  52.0000 Du        
   2888 ****       188.0000   9.5000  48.0000 Du        
   2889 ****       188.0000   9.5000  48.2500 Du        
   2890 ****       188.0000   9.5000  48.5000 Du        
   2891 ****       188.0000   9.5000  48.7500 Du        
   2892 ****       188.0000   9.5000  49.0000 Du        
   2893 ****       188.0000   9.5000  49.2500 Du        
   2894 ****       188.0000   9.5000  49.5000 Du        
   2895 ****       188.0000   9.5000  49.7500 Du        
   2896 ****       188.0000   9.5000  50.0000 Du        
   2897 ****       188.0000   9.5000  50.2500 Du        
   2898 ****       188.0000   9.5000  50.5000 Du        
   2899 ****       188.0000   9.5000  50.7500 Du        
   2900 ****       188.0000   9.5000  51.0000 Du        
   2901 ****       188.0000   9.5000  51.2500 Du        
   2902 ****       188.0000   9.5000  51.5000 Du        
   2903 ****       188.0000   9.5000  51.7500 Du        
   2904 ****       188.0000   9.5000  52.0000 Du        
   2905 ****       188.0000   9.5000  52.2500 Du        
   2906 ****       188.0000   9.7500  48.0000 Du        
   2907 ****       188.0000   9.7500  48.2500 Du        
   2908 ****       188.0000   9.7500  48.5000 Du        
   2909 ****       188.0000   9.7500  48.7500 Du        
   2910 ****       188.0000   9.7500  49.0000 Du        
   2911 ****       188.0000   9.7500  49.2500 Du        
   2912 ****       188.0000   9.7500  49.5000 Du        
   2913 ****       188.0000   9.7500  49.7500 Du        
   2914 ****       188.0000   9.7500  50.0000 Du        
   2915 ****       188.0000   9.7500  50.2500 Du        
   2916 ****       188.0000   9.7500  50.5000 Du        
   2917 ****       188.0000   9.7500  50.7500 Du        
   2918 ****       188.0000   9.7500  51.0000 Du        
   2919 ****       188.0000   9.7500  51.2500 Du        
   2920 ****       188.0000   9.7500  51.5000 Du        
   2921 ****       188.0000   9.7500  51.7500 Du        
   2922 ****       188.0000   9.7500  52.0000 Du        
   2923 ****       188.0000   9.7500  52.2500 Du        
   2924 ****       188.0000   9.7500  52.5000 Du        
   2925 ****       188.0000  10.0000  48.0000 Du        
   2926 ****       188.0000  10.0000  48.2500 Du        
   2927 ****       188.0000  10.0000  48.5000 Du        
   2928 ****       188.0000  10.0000  48.7500 Du        
   2929 ****       188.0000  10.0000  49.0000 Du        
   2930 ****       188.0000  10.0000  49.2500 Du        
   2931 ****       188.0000  10.0000  49.5000 Du        
   2932 ****       188.0000  10.0000  49.7500 Du        
   2933 ****       188.0000  10.0000  50.0000 Du        
   2934 ****       188.0000  10.0000  50.2500 Du        
   2935 ****       188.0000  10.0000  50.5000 Du        
   2936 ****       188.0000  10.0000  50.7500 Du        
   2937 ****       188.0000  10.0000  51.0000 Du        
   2938 ****       188.0000  10.0000  51.2500 Du        
   2939 ****       188.0000  10.0000  51.5000 Du        
   2940 ****       188.0000  10.0000  51.7500 Du        
   2941 ****       188.0000  10.0000  52.0000 Du        
   2942 ****       188.0000  10.0000  52.2500 Du        
   2943 ****       188.0000  10.0000  52.5000 Du        
   2944 ****       188.0000  10.0000  52.7500 Du        
   2945 ****       188.0000  10.2500  48.2500 Du        
   2946 ****       188.0000  10.2500  48.5000 Du        
   2947 ****       188.0000  10.2500  48.7500 Du        
   2948 ****       188.0000  10.2500  49.0000 Du        
   2949 ****       188.0000  10.2500  49.2500 Du        
   2950 ****       188.0000  10.2500  49.5000 Du        
   2951 ****       188.0000  10.2500  49.7500 Du        
   2952 ****       188.0000  10.2500  50.0000 Du        
   2953 ****       188.0000  10.2500  50.2500 Du        
   2954 ****       188.0000  10.2500  50.5000 Du        
   2955 ****       188.0000  10.2500  50.7500 Du        
   2956 ****       188.0000  10.2500  51.0000 Du        
   2957 ****       188.0000  10.2500  51.2500 Du        
   2958 ****       188.0000  10.2500  51.5000 Du        
   2959 ****       188.0000  10.2500  51.7500 Du        
   2960 ****       188.0000  10.2500  52.0000 Du        
   2961 ****       188.0000  10.2500  52.2500 Du        
   2962 ****       188.0000  10.2500  52.5000 Du        
   2963 ****       188.0000  10.2500  52.7500 Du        
   2964 ****       188.0000  10.2500  53.0000 Du        
   2965 ****       188.0000  10.5000  48.5000 Du        
   2966 ****       188.0000  10.5000  48.7500 Du        
   2967 ****       188.0000  10.5000  49.0000 Du        
   2968 ****       188.0000  10.5000  49.2500 Du        
   2969 ****       188.0000  10.5000  49.5000 Du        
   2970 ****       188.0000  10.5000  49.7500 Du        
   2971 ****       188.0000  10.5000  50.0000 Du        
   2972 ****       188.0000  10.5000  50.2500 Du        
   2973 ****       188.0000  10.5000  50.5000 Du        
   2974 ****       188.0000  10.5000  50.7500 Du        
   2975 ****       188.0000  10.5000  51.0000 Du        
   2976 ****       188.0000  10.5000  51.2500 Du        
   2977 ****       188.0000  10.5000  51.5000 Du        
   2978 ****       188.0000  10.5000  51.7500 Du        
   2979 ****       188.0000  10.5000  52.0000 Du        
   2980 ****       188.0000  10.5000  52.2500 Du        
   2981 ****       188.0000  10.5000  52.5000 Du        
   2982 ****       188.0000  10.5000  52.7500 Du        
   2983 ****       188.0000  10.5000  53.0000 Du        
   2984 ****       188.0000  10.7500  48.7500 Du        
   2985 ****       188.0000  10.7500  49.0000 Du        
   2986 ****       188.0000  10.7500  49.2500 Du        
   2987 ****       188.0000  10.7500  49.5000 Du        
   2988 ****       188.0000  10.7500  49.7500 Du        
   2989 ****       188.0000  10.7500  50.0000 Du        
   2990 ****       188.0000  10.7500  50.2500 Du        
   2991 ****       188.0000  10.7500  50.5000 Du        
   2992 ****       188.0000  10.7500  50.7500 Du        
   2993 ****       188.0000  10.7500  51.0000 Du        
   2994 ****       188.0000  10.7500  51.2500 Du        
   2995 ****       188.0000  10.7500  51.5000 Du        
   2996 ****       188.0000  10.7500  51.7500 Du        
   2997 ****       188.0000  10.7500  52.0000 Du        
   2998 ****       188.0000  10.7500  52.2500 Du        
   2999 ****       188.0000  10.7500  52.5000 Du        
   3000 ****       188.0000  10.7500  52.7500 Du        
   3001 ****       188.0000  11.0000  49.0000 Du        
   3002 ****       188.0000  11.0000  49.2500 Du        
   3003 ****       188.0000  11.0000  49.5000 Du        
   3004 ****       188.0000  11.0000  49.7500 Du        
   3005 ****       188.0000  11.0000  50.0000 Du        
   3006 ****       188.0000  11.0000  50.2500 Du        
   3007 ****       188.0000  11.0000  50.5000 Du        
   3008 ****       188.0000  11.0000  50.7500 Du        
   3009 ****       188.0000  11.0000  51.0000 Du        
   3010 ****       188.0000  11.0000  51.2500 Du        
   3011 ****       188.0000  11.0000  51.5000 Du        
   3012 ****       188.0000  11.0000  51.7500 Du        
   3013 ****       188.0000  11.0000  52.0000 Du        
   3014 ****       188.0000  11.0000  52.2500 Du        
   3015 ****       188.0000  11.0000  52.5000 Du        
   3016 ****       188.0000  11.2500  49.0000 Du        
   3017 ****       188.0000  11.2500  49.2500 Du        
   3018 ****       188.0000  11.2500  49.5000 Du        
   3019 ****       188.0000  11.2500  49.7500 Du        
   3020 ****       188.0000  11.2500  50.0000 Du        
   3021 ****       188.0000  11.2500  50.2500 Du        
   3022 ****       188.0000  11.2500  50.5000 Du        
   3023 ****       188.0000  11.2500  50.7500 Du        
   3024 ****       188.0000  11.2500  51.0000 Du        
   3025 ****       188.0000  11.2500  51.2500 Du        
   3026 ****       188.0000  11.2500  51.5000 Du        
   3027 ****       188.0000  11.2500  51.7500 Du        
   3028 ****       188.0000  11.2500  52.0000 Du        
   3029 ****       188.0000  11.2500  52.2500 Du        
   3030 ****       188.0000  11.5000  49.2500 Du        
   3031 ****       188.0000  11.5000  49.5000 Du        
   3032 ****       188.0000  11.5000  49.7500 Du        
   3033 ****       188.0000  11.5000  50.0000 Du        
   3034 ****       188.0000  11.5000  50.2500 Du        
   3035 ****       188.0000  11.5000  50.5000 Du        
   3036 ****       188.0000  11.5000  50.7500 Du        
   3037 ****       188.0000  11.5000  51.0000 Du        
   3038 ****       188.0000  11.5000  51.2500 Du        
   3039 ****       188.0000  11.5000  51.5000 Du        
   3040 ****       188.0000  11.5000  51.7500 Du        
   3041 ****       188.0000  11.5000  52.0000 Du        
   3042 ****       188.0000  11.7500  49.2500 Du        
   3043 ****       188.0000  11.7500  49.5000 Du        
   3044 ****       188.0000  11.7500  49.7500 Du        
   3045 ****       188.0000  11.7500  50.0000 Du        
   3046 ****       188.0000  11.7500  50.2500 Du        
   3047 ****       188.0000  11.7500  50.5000 Du        
   3048 ****       188.0000  11.7500  50.7500 Du        
   3049 ****       188.0000  11.7500  51.0000 Du        
   3050 ****       188.0000  11.7500  51.2500 Du        
   3051 ****       188.0000  11.7500  51.5000 Du        
   3052 ****       188.0000  12.0000  49.2500 Du        
   3053 ****       188.0000  12.0000  49.5000 Du        
   3054 ****       188.0000  12.0000  49.7500 Du        
   3055 ****       188.0000  12.0000  50.0000 Du        
   3056 ****       188.0000  12.0000  50.2500 Du        
   3057 ****       188.0000  12.0000  50.5000 Du        
   3058 ****       188.0000  12.0000  50.7500 Du        
   3059 ****       188.0000  12.0000  51.0000 Du        
   3060 ****       188.0000  12.0000  51.2500 Du        
   3061 ****       188.0000  12.2500  49.2500 Du        
   3062 ****       188.0000  12.2500  49.5000 Du        
   3063 ****       188.0000  12.2500  49.7500 Du        
   3064 ****       188.0000  12.2500  50.0000 Du        
   3065 ****       188.0000  12.2500  50.2500 Du        
   3066 ****       188.0000  12.2500  50.5000 Du        
   3067 ****       188.0000  12.2500  50.7500 Du        
   3068 ****       188.0000  12.2500  51.0000 Du        
   3069 ****       188.0000  12.5000  49.2500 Du        
   3070 ****       188.0000  12.5000  49.5000 Du        
   3071 ****       188.0000  12.5000  49.7500 Du        
   3072 ****       188.0000  12.5000  50.0000 Du        
   3073 ****       188.0000  12.5000  50.2500 Du        
   3074 ****       188.0000  12.5000  50.5000 Du        
   3075 ****       188.0000  12.5000  50.7500 Du        
   3076 ****       188.0000  12.7500  49.2500 Du        
   3077 ****       188.0000  12.7500  49.5000 Du        
   3078 ****       188.0000  12.7500  49.7500 Du        
   3079 ****       188.0000  12.7500  50.0000 Du        
   3080 ****       188.0000  12.7500  50.2500 Du        
   3081 ****       188.0000  12.7500  50.5000 Du        
   3082 ****       188.0000  13.0000  49.2500 Du        
   3083 ****       188.0000  13.0000  49.5000 Du        
   3084 ****       188.0000  13.0000  49.7500 Du        
   3085 ****       188.0000  13.0000  50.0000 Du        
   3086 ****       188.0000  13.0000  50.2500 Du        
   3087 ****       188.0000  13.2500  49.2500 Du        
   3088 ****       188.0000  13.2500  49.5000 Du        
   3089 ****       188.0000  13.2500  49.7500 Du        
   3090 ****       188.0000  13.2500  50.0000 Du        
   3091 ****       188.0000  13.2500  50.2500 Du        
   3092 ****       188.0000  13.5000  49.2500 Du        
   3093 ****       188.0000  13.5000  49.5000 Du        
   3094 ****       188.0000  13.5000  49.7500 Du        
   3095 ****       188.0000  13.5000  50.0000 Du        
   3096 ****       188.0000  13.7500  49.2500 Du        
   3097 ****       188.0000  13.7500  49.5000 Du        
   3098 ****       188.0000  13.7500  49.7500 Du        
   3099 ****       188.0000  14.0000  49.0000 Du        
   3100 ****       188.0000  14.0000  49.2500 Du        
   3101 ****       188.0000  14.0000  49.5000 Du        
   3102 ****       188.0000  14.2500  49.0000 Du        
   3103 ****       188.0000  14.2500  49.2500 Du        
   3104 ****       188.0000  14.5000  49.0000 Du        
   3105 ****       188.0000  16.2500  45.2500 Du        
   3106 ****       188.0000  16.2500  45.7500 Du        
   3107 ****       188.0000  16.2500  46.0000 Du        
   3108 ****       188.0000  16.2500  47.0000 Du        
   3109 ****       188.0000  16.2500  47.2500 Du        
   3110 ****       188.0000  16.2500  47.5000 Du        
   3111 ****       188.0000  16.2500  47.7500 Du        
   3112 ****       188.0000  16.5000  45.0000 Du        
   3113 ****       188.0000  16.5000  45.2500 Du        
   3114 ****       188.0000  16.5000  45.5000 Du        
   3115 ****       188.0000  16.5000  45.7500 Du        
   3116 ****       188.0000  16.5000  46.0000 Du        
   3117 ****       188.0000  16.5000  46.2500 Du        
   3118 ****       188.0000  16.5000  47.0000 Du        
   3119 ****       188.0000  16.7500  44.7500 Du        
   3120 ****       188.0000  16.7500  45.0000 Du        
   3121 ****       188.0000  16.7500  45.2500 Du        
   3122 ****       188.0000  16.7500  45.5000 Du        
   3123 ****       188.0000  16.7500  45.7500 Du        
   3124 ****       188.0000  16.7500  46.0000 Du        
   3125 ****       188.0000  16.7500  46.2500 Du        
   3126 ****       188.0000  16.7500  47.0000 Du        
   3127 ****       188.0000  17.0000  44.7500 Du        
   3128 ****       188.0000  17.0000  45.0000 Du        
   3129 ****       188.0000  17.0000  45.2500 Du        
   3130 ****       188.0000  17.0000  45.5000 Du        
   3131 ****       188.0000  17.0000  45.7500 Du        
   3132 ****       188.0000  17.0000  46.0000 Du        
   3133 ****       188.0000  17.0000  46.2500 Du        
   3134 ****       188.0000  17.2500  44.7500 Du        
   3135 ****       188.0000  17.2500  45.0000 Du        
   3136 ****       188.0000  17.2500  45.2500 Du        
   3137 ****       188.0000  17.2500  45.5000 Du        
   3138 ****       188.0000  17.2500  45.7500 Du        
   3139 ****       188.0000  17.2500  46.0000 Du        
   3140 ****       188.0000  17.2500  46.2500 Du        
   3141 ****       188.0000  17.5000  44.7500 Du        
   3142 ****       188.0000  17.5000  45.0000 Du        
   3143 ****       188.0000  17.5000  45.2500 Du        
   3144 ****       188.0000  17.7500  44.5000 Du        
   3145 ****       188.0000  17.7500  44.7500 Du        
   3146 ****       188.0000  17.7500  45.0000 Du        
   3147 ****       188.0000  17.7500  45.2500 Du        
   3148 ****       188.0000  18.0000  44.5000 Du        
   3149 ****       188.0000  18.0000  44.7500 Du        
   3150 ****       188.0000  18.0000  45.0000 Du        
   3151 ****       188.0000  18.2500  44.7500 Du        
   3152 ****       188.0000  19.5000  51.7500 Du        
   3153 ****       188.0000  19.5000  52.0000 Du        
   3154 ****       188.0000  19.5000  52.2500 Du        
   3155 ****       188.0000  19.7500  51.2500 Du        
   3156 ****       188.0000  19.7500  51.5000 Du        
   3157 ****       188.0000  19.7500  51.7500 Du        
   3158 ****       188.0000  19.7500  52.0000 Du        
   3159 ****       188.0000  19.7500  52.2500 Du        
   3160 ****       188.0000  20.0000  50.0000 Du        
   3161 ****       188.0000  20.0000  50.2500 Du        
   3162 ****       188.0000  20.0000  50.5000 Du        
   3163 ****       188.0000  20.0000  50.7500 Du        
   3164 ****       188.0000  20.0000  51.0000 Du        
   3165 ****       188.0000  20.0000  51.2500 Du        
   3166 ****       188.0000  20.0000  51.5000 Du        
   3167 ****       188.0000  20.0000  51.7500 Du        
   3168 ****       188.0000  20.0000  52.0000 Du        
   3169 ****       188.0000  20.2500  49.7500 Du        
   3170 ****       188.0000  20.2500  50.0000 Du        
   3171 ****       188.0000  20.2500  50.2500 Du        
   3172 ****       188.0000  20.2500  50.5000 Du        
   3173 ****       188.0000  20.2500  50.7500 Du        
   3174 ****       188.0000  20.2500  51.0000 Du        
   3175 ****       188.0000  20.2500  51.2500 Du        
   3176 ****       188.0000  20.2500  51.5000 Du        
   3177 ****       188.0000  20.2500  51.7500 Du        
   3178 ****       188.0000  20.5000  49.7500 Du        
   3179 ****       188.0000  20.5000  50.0000 Du        
   3180 ****       188.0000  20.5000  50.2500 Du        
   3181 ****       188.0000  20.5000  50.5000 Du        
   3182 ****       188.0000  20.5000  50.7500 Du        
   3183 ****       188.0000  20.5000  51.0000 Du        
   3184 ****       188.0000  20.5000  51.2500 Du        
   3185 ****       188.0000  20.5000  51.5000 Du        
   3186 ****       188.0000  20.7500  49.7500 Du        
   3187 ****       188.0000  20.7500  50.0000 Du        
   3188 ****       188.0000  20.7500  50.2500 Du        
   3189 ****       188.0000  20.7500  50.5000 Du        
   3190 ****       188.0000  20.7500  50.7500 Du        
   3191 ****       188.0000  20.7500  51.0000 Du        
   3192 ****       188.0000  20.7500  51.2500 Du        
   3193 ****       188.0000  21.0000  49.7500 Du        
   3194 ****       188.0000  21.0000  50.0000 Du        
   3195 ****       188.0000  21.0000  50.2500 Du        
   3196 ****       188.0000  21.0000  50.5000 Du        
   3197 ****       188.0000  21.0000  50.7500 Du        
   3198 ****       188.0000  21.0000  51.0000 Du        
   3199 ****       188.0000  21.2500  49.5000 Du        
   3200 ****       188.0000  21.2500  49.7500 Du        
   3201 ****       188.0000  21.2500  50.0000 Du        
   3202 ****       188.0000  21.2500  50.2500 Du        
   3203 ****       188.0000  21.2500  50.5000 Du        
   3204 ****       188.0000  21.2500  50.7500 Du        
   3205 ****       188.0000  21.5000  49.7500 Du        
   3206 ****       188.0000  21.5000  50.0000 Du        
   3207 ****       188.0000  21.5000  50.2500 Du        
   3208 ****       188.0000  21.7500  49.7500 Du        
   3209 ****       188.0000  21.7500  50.0000 Du        
   3210 ****       188.0000  22.0000  50.0000 Du        
   3211 ****       188.2500   8.5000  50.7500 Du        
   3212 ****       188.2500   8.5000  51.0000 Du        
   3213 ****       188.2500   8.5000  51.2500 Du        
   3214 ****       188.2500   8.7500  48.5000 Du        
   3215 ****       188.2500   8.7500  48.7500 Du        
   3216 ****       188.2500   8.7500  49.0000 Du        
   3217 ****       188.2500   8.7500  49.2500 Du        
   3218 ****       188.2500   8.7500  49.5000 Du        
   3219 ****       188.2500   8.7500  49.7500 Du        
   3220 ****       188.2500   8.7500  50.0000 Du        
   3221 ****       188.2500   8.7500  50.2500 Du        
   3222 ****       188.2500   8.7500  50.5000 Du        
   3223 ****       188.2500   8.7500  50.7500 Du        
   3224 ****       188.2500   8.7500  51.0000 Du        
   3225 ****       188.2500   8.7500  51.2500 Du        
   3226 ****       188.2500   8.7500  51.5000 Du        
   3227 ****       188.2500   8.7500  51.7500 Du        
   3228 ****       188.2500   9.0000  48.2500 Du        
   3229 ****       188.2500   9.0000  48.5000 Du        
   3230 ****       188.2500   9.0000  48.7500 Du        
   3231 ****       188.2500   9.0000  49.0000 Du        
   3232 ****       188.2500   9.0000  49.2500 Du        
   3233 ****       188.2500   9.0000  49.5000 Du        
   3234 ****       188.2500   9.0000  49.7500 Du        
   3235 ****       188.2500   9.0000  50.0000 Du        
   3236 ****       188.2500   9.0000  50.2500 Du        
   3237 ****       188.2500   9.0000  50.5000 Du        
   3238 ****       188.2500   9.0000  50.7500 Du        
   3239 ****       188.2500   9.0000  51.0000 Du        
   3240 ****       188.2500   9.0000  51.2500 Du        
   3241 ****       188.2500   9.0000  51.5000 Du        
   3242 ****       188.2500   9.0000  51.7500 Du        
   3243 ****       188.2500   9.0000  52.0000 Du        
   3244 ****       188.2500   9.2500  48.0000 Du        
   3245 ****       188.2500   9.2500  48.2500 Du        
   3246 ****       188.2500   9.2500  48.5000 Du        
   3247 ****       188.2500   9.2500  48.7500 Du        
   3248 ****       188.2500   9.2500  49.0000 Du        
   3249 ****       188.2500   9.2500  49.2500 Du        
   3250 ****       188.2500   9.2500  49.5000 Du        
   3251 ****       188.2500   9.2500  49.7500 Du        
   3252 ****       188.2500   9.2500  50.0000 Du        
   3253 ****       188.2500   9.2500  50.2500 Du        
   3254 ****       188.2500   9.2500  50.5000 Du        
   3255 ****       188.2500   9.2500  50.7500 Du        
   3256 ****       188.2500   9.2500  51.0000 Du        
   3257 ****       188.2500   9.2500  51.2500 Du        
   3258 ****       188.2500   9.2500  51.5000 Du        
   3259 ****       188.2500   9.2500  51.7500 Du        
   3260 ****       188.2500   9.2500  52.0000 Du        
   3261 ****       188.2500   9.2500  52.2500 Du        
   3262 ****       188.2500   9.5000  48.0000 Du        
   3263 ****       188.2500   9.5000  48.2500 Du        
   3264 ****       188.2500   9.5000  48.5000 Du        
   3265 ****       188.2500   9.5000  48.7500 Du        
   3266 ****       188.2500   9.5000  49.0000 Du        
   3267 ****       188.2500   9.5000  49.2500 Du        
   3268 ****       188.2500   9.5000  49.5000 Du        
   3269 ****       188.2500   9.5000  49.7500 Du        
   3270 ****       188.2500   9.5000  50.0000 Du        
   3271 ****       188.2500   9.5000  50.2500 Du        
   3272 ****       188.2500   9.5000  50.5000 Du        
   3273 ****       188.2500   9.5000  50.7500 Du        
   3274 ****       188.2500   9.5000  51.0000 Du        
   3275 ****       188.2500   9.5000  51.2500 Du        
   3276 ****       188.2500   9.5000  51.5000 Du        
   3277 ****       188.2500   9.5000  51.7500 Du        
   3278 ****       188.2500   9.5000  52.0000 Du        
   3279 ****       188.2500   9.5000  52.2500 Du        
   3280 ****       188.2500   9.7500  48.0000 Du        
   3281 ****       188.2500   9.7500  48.2500 Du        
   3282 ****       188.2500   9.7500  48.5000 Du        
   3283 ****       188.2500   9.7500  48.7500 Du        
   3284 ****       188.2500   9.7500  49.0000 Du        
   3285 ****       188.2500   9.7500  49.2500 Du        
   3286 ****       188.2500   9.7500  49.5000 Du        
   3287 ****       188.2500   9.7500  49.7500 Du        
   3288 ****       188.2500   9.7500  50.0000 Du        
   3289 ****       188.2500   9.7500  50.2500 Du        
   3290 ****       188.2500   9.7500  50.5000 Du        
   3291 ****       188.2500   9.7500  50.7500 Du        
   3292 ****       188.2500   9.7500  51.0000 Du        
   3293 ****       188.2500   9.7500  51.2500 Du        
   3294 ****       188.2500   9.7500  51.5000 Du        
   3295 ****       188.2500   9.7500  51.7500 Du        
   3296 ****       188.2500   9.7500  52.0000 Du        
   3297 ****       188.2500   9.7500  52.2500 Du        
   3298 ****       188.2500   9.7500  52.5000 Du        
   3299 ****       188.2500  10.0000  48.0000 Du        
   3300 ****       188.2500  10.0000  48.2500 Du        
   3301 ****       188.2500  10.0000  48.5000 Du        
   3302 ****       188.2500  10.0000  48.7500 Du        
   3303 ****       188.2500  10.0000  49.0000 Du        
   3304 ****       188.2500  10.0000  49.2500 Du        
   3305 ****       188.2500  10.0000  49.5000 Du        
   3306 ****       188.2500  10.0000  49.7500 Du        
   3307 ****       188.2500  10.0000  50.0000 Du        
   3308 ****       188.2500  10.0000  50.2500 Du        
   3309 ****       188.2500  10.0000  50.5000 Du        
   3310 ****       188.2500  10.0000  50.7500 Du        
   3311 ****       188.2500  10.0000  51.0000 Du        
   3312 ****       188.2500  10.0000  51.2500 Du        
   3313 ****       188.2500  10.0000  51.5000 Du        
   3314 ****       188.2500  10.0000  51.7500 Du        
   3315 ****       188.2500  10.0000  52.0000 Du        
   3316 ****       188.2500  10.0000  52.2500 Du        
   3317 ****       188.2500  10.0000  52.5000 Du        
   3318 ****       188.2500  10.0000  52.7500 Du        
   3319 ****       188.2500  10.2500  48.2500 Du        
   3320 ****       188.2500  10.2500  48.5000 Du        
   3321 ****       188.2500  10.2500  48.7500 Du        
   3322 ****       188.2500  10.2500  49.0000 Du        
   3323 ****       188.2500  10.2500  49.2500 Du        
   3324 ****       188.2500  10.2500  49.5000 Du        
   3325 ****       188.2500  10.2500  49.7500 Du        
   3326 ****       188.2500  10.2500  50.0000 Du        
   3327 ****       188.2500  10.2500  50.2500 Du        
   3328 ****       188.2500  10.2500  50.5000 Du        
   3329 ****       188.2500  10.2500  50.7500 Du        
   3330 ****       188.2500  10.2500  51.0000 Du        
   3331 ****       188.2500  10.2500  51.2500 Du        
   3332 ****       188.2500  10.2500  51.5000 Du        
   3333 ****       188.2500  10.2500  51.7500 Du        
   3334 ****       188.2500  10.2500  52.0000 Du        
   3335 ****       188.2500  10.2500  52.2500 Du        
   3336 ****       188.2500  10.2500  52.5000 Du        
   3337 ****       188.2500  10.2500  52.7500 Du        
   3338 ****       188.2500  10.2500  53.0000 Du        
   3339 ****       188.2500  10.5000  48.5000 Du        
   3340 ****       188.2500  10.5000  48.7500 Du        
   3341 ****       188.2500  10.5000  49.0000 Du        
   3342 ****       188.2500  10.5000  49.2500 Du        
   3343 ****       188.2500  10.5000  49.5000 Du        
   3344 ****       188.2500  10.5000  49.7500 Du        
   3345 ****       188.2500  10.5000  50.0000 Du        
   3346 ****       188.2500  10.5000  50.2500 Du        
   3347 ****       188.2500  10.5000  50.5000 Du        
   3348 ****       188.2500  10.5000  50.7500 Du        
   3349 ****       188.2500  10.5000  51.0000 Du        
   3350 ****       188.2500  10.5000  51.2500 Du        
   3351 ****       188.2500  10.5000  51.5000 Du        
   3352 ****       188.2500  10.5000  51.7500 Du        
   3353 ****       188.2500  10.5000  52.0000 Du        
   3354 ****       188.2500  10.5000  52.2500 Du        
   3355 ****       188.2500  10.5000  52.5000 Du        
   3356 ****       188.2500  10.5000  52.7500 Du        
   3357 ****       188.2500  10.5000  53.0000 Du        
   3358 ****       188.2500  10.7500  48.5000 Du        
   3359 ****       188.2500  10.7500  48.7500 Du        
   3360 ****       188.2500  10.7500  49.0000 Du        
   3361 ****       188.2500  10.7500  49.2500 Du        
   3362 ****       188.2500  10.7500  49.5000 Du        
   3363 ****       188.2500  10.7500  49.7500 Du        
   3364 ****       188.2500  10.7500  50.0000 Du        
   3365 ****       188.2500  10.7500  50.2500 Du        
   3366 ****       188.2500  10.7500  50.5000 Du        
   3367 ****       188.2500  10.7500  50.7500 Du        
   3368 ****       188.2500  10.7500  51.0000 Du        
   3369 ****       188.2500  10.7500  51.2500 Du        
   3370 ****       188.2500  10.7500  51.5000 Du        
   3371 ****       188.2500  10.7500  51.7500 Du        
   3372 ****       188.2500  10.7500  52.0000 Du        
   3373 ****       188.2500  10.7500  52.2500 Du        
   3374 ****       188.2500  10.7500  52.5000 Du        
   3375 ****       188.2500  10.7500  52.7500 Du        
   3376 ****       188.2500  11.0000  48.7500 Du        
   3377 ****       188.2500  11.0000  49.0000 Du        
   3378 ****       188.2500  11.0000  49.2500 Du        
   3379 ****       188.2500  11.0000  49.5000 Du        
   3380 ****       188.2500  11.0000  49.7500 Du        
   3381 ****       188.2500  11.0000  50.0000 Du        
   3382 ****       188.2500  11.0000  50.2500 Du        
   3383 ****       188.2500  11.0000  50.5000 Du        
   3384 ****       188.2500  11.0000  50.7500 Du        
   3385 ****       188.2500  11.0000  51.0000 Du        
   3386 ****       188.2500  11.0000  51.2500 Du        
   3387 ****       188.2500  11.0000  51.5000 Du        
   3388 ****       188.2500  11.0000  51.7500 Du        
   3389 ****       188.2500  11.0000  52.0000 Du        
   3390 ****       188.2500  11.0000  52.2500 Du        
   3391 ****       188.2500  11.0000  52.5000 Du        
   3392 ****       188.2500  11.2500  49.0000 Du        
   3393 ****       188.2500  11.2500  49.2500 Du        
   3394 ****       188.2500  11.2500  49.5000 Du        
   3395 ****       188.2500  11.2500  49.7500 Du        
   3396 ****       188.2500  11.2500  50.0000 Du        
   3397 ****       188.2500  11.2500  50.2500 Du        
   3398 ****       188.2500  11.2500  50.5000 Du        
   3399 ****       188.2500  11.2500  50.7500 Du        
   3400 ****       188.2500  11.2500  51.0000 Du        
   3401 ****       188.2500  11.2500  51.2500 Du        
   3402 ****       188.2500  11.2500  51.5000 Du        
   3403 ****       188.2500  11.2500  51.7500 Du        
   3404 ****       188.2500  11.2500  52.0000 Du        
   3405 ****       188.2500  11.2500  52.2500 Du        
   3406 ****       188.2500  11.5000  49.0000 Du        
   3407 ****       188.2500  11.5000  49.2500 Du        
   3408 ****       188.2500  11.5000  49.5000 Du        
   3409 ****       188.2500  11.5000  49.7500 Du        
   3410 ****       188.2500  11.5000  50.0000 Du        
   3411 ****       188.2500  11.5000  50.2500 Du        
   3412 ****       188.2500  11.5000  50.5000 Du        
   3413 ****       188.2500  11.5000  50.7500 Du        
   3414 ****       188.2500  11.5000  51.0000 Du        
   3415 ****       188.2500  11.5000  51.2500 Du        
   3416 ****       188.2500  11.5000  51.5000 Du        
   3417 ****       188.2500  11.5000  51.7500 Du        
   3418 ****       188.2500  11.5000  52.0000 Du        
   3419 ****       188.2500  11.7500  49.2500 Du        
   3420 ****       188.2500  11.7500  49.5000 Du        
   3421 ****       188.2500  11.7500  49.7500 Du        
   3422 ****       188.2500  11.7500  50.0000 Du        
   3423 ****       188.2500  11.7500  50.2500 Du        
   3424 ****       188.2500  11.7500  50.5000 Du        
   3425 ****       188.2500  11.7500  50.7500 Du        
   3426 ****       188.2500  11.7500  51.0000 Du        
   3427 ****       188.2500  11.7500  51.2500 Du        
   3428 ****       188.2500  11.7500  51.5000 Du        
   3429 ****       188.2500  11.7500  51.7500 Du        
   3430 ****       188.2500  12.0000  49.2500 Du        
   3431 ****       188.2500  12.0000  49.5000 Du        
   3432 ****       188.2500  12.0000  49.7500 Du        
   3433 ****       188.2500  12.0000  50.0000 Du        
   3434 ****       188.2500  12.0000  50.2500 Du        
   3435 ****       188.2500  12.0000  50.5000 Du        
   3436 ****       188.2500  12.0000  50.7500 Du        
   3437 ****       188.2500  12.0000  51.0000 Du        
   3438 ****       188.2500  12.0000  51.2500 Du        
   3439 ****       188.2500  12.2500  49.2500 Du        
   3440 ****       188.2500  12.2500  49.5000 Du        
   3441 ****       188.2500  12.2500  49.7500 Du        
   3442 ****       188.2500  12.2500  50.0000 Du        
   3443 ****       188.2500  12.2500  50.2500 Du        
   3444 ****       188.2500  12.2500  50.5000 Du        
   3445 ****       188.2500  12.2500  50.7500 Du        
   3446 ****       188.2500  12.2500  51.0000 Du        
   3447 ****       188.2500  12.5000  49.2500 Du        
   3448 ****       188.2500  12.5000  49.5000 Du        
   3449 ****       188.2500  12.5000  49.7500 Du        
   3450 ****       188.2500  12.5000  50.0000 Du        
   3451 ****       188.2500  12.5000  50.2500 Du        
   3452 ****       188.2500  12.5000  50.5000 Du        
   3453 ****       188.2500  12.5000  50.7500 Du        
   3454 ****       188.2500  12.7500  49.2500 Du        
   3455 ****       188.2500  12.7500  49.5000 Du        
   3456 ****       188.2500  12.7500  49.7500 Du        
   3457 ****       188.2500  12.7500  50.0000 Du        
   3458 ****       188.2500  12.7500  50.2500 Du        
   3459 ****       188.2500  12.7500  50.5000 Du        
   3460 ****       188.2500  13.0000  49.2500 Du        
   3461 ****       188.2500  13.0000  49.5000 Du        
   3462 ****       188.2500  13.0000  49.7500 Du        
   3463 ****       188.2500  13.0000  50.0000 Du        
   3464 ****       188.2500  13.0000  50.2500 Du        
   3465 ****       188.2500  13.2500  49.2500 Du        
   3466 ****       188.2500  13.2500  49.5000 Du        
   3467 ****       188.2500  13.2500  49.7500 Du        
   3468 ****       188.2500  13.2500  50.0000 Du        
   3469 ****       188.2500  13.5000  49.2500 Du        
   3470 ****       188.2500  13.5000  49.5000 Du        
   3471 ****       188.2500  13.5000  49.7500 Du        
   3472 ****       188.2500  13.7500  49.2500 Du        
   3473 ****       188.2500  14.0000  49.2500 Du        
   3474 ****       188.2500  16.2500  45.2500 Du        
   3475 ****       188.2500  16.2500  45.5000 Du        
   3476 ****       188.2500  16.2500  45.7500 Du        
   3477 ****       188.2500  16.2500  46.0000 Du        
   3478 ****       188.2500  16.2500  46.2500 Du        
   3479 ****       188.2500  16.2500  47.0000 Du        
   3480 ****       188.2500  16.2500  47.2500 Du        
   3481 ****       188.2500  16.2500  47.5000 Du        
   3482 ****       188.2500  16.5000  45.0000 Du        
   3483 ****       188.2500  16.5000  45.2500 Du        
   3484 ****       188.2500  16.5000  45.5000 Du        
   3485 ****       188.2500  16.5000  45.7500 Du        
   3486 ****       188.2500  16.5000  46.0000 Du        
   3487 ****       188.2500  16.5000  46.2500 Du        
   3488 ****       188.2500  16.7500  44.7500 Du        
   3489 ****       188.2500  16.7500  45.0000 Du        
   3490 ****       188.2500  16.7500  45.2500 Du        
   3491 ****       188.2500  16.7500  45.5000 Du        
   3492 ****       188.2500  16.7500  45.7500 Du        
   3493 ****       188.2500  16.7500  46.0000 Du        
   3494 ****       188.2500  16.7500  46.2500 Du        
   3495 ****       188.2500  17.0000  44.7500 Du        
   3496 ****       188.2500  17.0000  45.0000 Du        
   3497 ****       188.2500  17.0000  45.2500 Du        
   3498 ****       188.2500  17.0000  45.5000 Du        
   3499 ****       188.2500  17.0000  45.7500 Du        
   3500 ****       188.2500  17.0000  46.0000 Du        
   3501 ****       188.2500  17.0000  46.2500 Du        
   3502 ****       188.2500  17.2500  44.7500 Du        
   3503 ****       188.2500  17.2500  45.0000 Du        
   3504 ****       188.2500  17.2500  45.2500 Du        
   3505 ****       188.2500  17.2500  45.5000 Du        
   3506 ****       188.2500  17.2500  45.7500 Du        
   3507 ****       188.2500  17.2500  46.0000 Du        
   3508 ****       188.2500  17.2500  46.2500 Du        
   3509 ****       188.2500  17.5000  44.7500 Du        
   3510 ****       188.2500  17.5000  45.0000 Du        
   3511 ****       188.2500  17.5000  45.2500 Du        
   3512 ****       188.2500  17.7500  44.7500 Du        
   3513 ****       188.2500  17.7500  45.0000 Du        
   3514 ****       188.2500  17.7500  45.2500 Du        
   3515 ****       188.2500  18.0000  44.7500 Du        
   3516 ****       188.2500  18.0000  45.0000 Du        
   3517 ****       188.2500  20.0000  51.0000 Du        
   3518 ****       188.2500  20.0000  51.2500 Du        
   3519 ****       188.2500  20.0000  51.5000 Du        
   3520 ****       188.2500  20.0000  51.7500 Du        
   3521 ****       188.2500  20.2500  49.7500 Du        
   3522 ****       188.2500  20.2500  50.0000 Du        
   3523 ****       188.2500  20.2500  50.2500 Du        
   3524 ****       188.2500  20.2500  50.5000 Du        
   3525 ****       188.2500  20.2500  50.7500 Du        
   3526 ****       188.2500  20.2500  51.0000 Du        
   3527 ****       188.2500  20.2500  51.2500 Du        
   3528 ****       188.2500  20.5000  49.7500 Du        
   3529 ****       188.2500  20.5000  50.0000 Du        
   3530 ****       188.2500  20.5000  50.2500 Du        
   3531 ****       188.2500  20.5000  50.5000 Du        
   3532 ****       188.2500  20.5000  50.7500 Du        
   3533 ****       188.2500  20.5000  51.0000 Du        
   3534 ****       188.2500  20.7500  49.5000 Du        
   3535 ****       188.2500  20.7500  49.7500 Du        
   3536 ****       188.2500  20.7500  50.0000 Du        
   3537 ****       188.2500  20.7500  50.2500 Du        
   3538 ****       188.2500  21.0000  49.7500 Du        
   3539 ****       188.2500  21.0000  50.0000 Du        
   3540 ****       188.2500  21.2500  49.5000 Du        
   3541 ****       188.2500  21.2500  49.7500 Du        
   3542 ****       188.2500  21.2500  50.0000 Du        
   3543 ****       188.5000   8.5000  48.5000 Du        
   3544 ****       188.5000   8.5000  48.7500 Du        
   3545 ****       188.5000   8.5000  49.0000 Du        
   3546 ****       188.5000   8.5000  49.2500 Du        
   3547 ****       188.5000   8.5000  49.5000 Du        
   3548 ****       188.5000   8.5000  49.7500 Du        
   3549 ****       188.5000   8.5000  50.0000 Du        
   3550 ****       188.5000   8.5000  50.2500 Du        
   3551 ****       188.5000   8.5000  50.5000 Du        
   3552 ****       188.5000   8.5000  50.7500 Du        
   3553 ****       188.5000   8.5000  51.0000 Du        
   3554 ****       188.5000   8.7500  48.5000 Du        
   3555 ****       188.5000   8.7500  48.7500 Du        
   3556 ****       188.5000   8.7500  49.0000 Du        
   3557 ****       188.5000   8.7500  49.2500 Du        
   3558 ****       188.5000   8.7500  49.5000 Du        
   3559 ****       188.5000   8.7500  49.7500 Du        
   3560 ****       188.5000   8.7500  50.0000 Du        
   3561 ****       188.5000   8.7500  50.2500 Du        
   3562 ****       188.5000   8.7500  50.5000 Du        
   3563 ****       188.5000   8.7500  50.7500 Du        
   3564 ****       188.5000   8.7500  51.0000 Du        
   3565 ****       188.5000   8.7500  51.2500 Du        
   3566 ****       188.5000   8.7500  51.5000 Du        
   3567 ****       188.5000   9.0000  48.2500 Du        
   3568 ****       188.5000   9.0000  48.5000 Du        
   3569 ****       188.5000   9.0000  48.7500 Du        
   3570 ****       188.5000   9.0000  49.0000 Du        
   3571 ****       188.5000   9.0000  49.2500 Du        
   3572 ****       188.5000   9.0000  49.5000 Du        
   3573 ****       188.5000   9.0000  49.7500 Du        
   3574 ****       188.5000   9.0000  50.0000 Du        
   3575 ****       188.5000   9.0000  50.2500 Du        
   3576 ****       188.5000   9.0000  50.5000 Du        
   3577 ****       188.5000   9.0000  50.7500 Du        
   3578 ****       188.5000   9.0000  51.0000 Du        
   3579 ****       188.5000   9.0000  51.2500 Du        
   3580 ****       188.5000   9.0000  51.5000 Du        
   3581 ****       188.5000   9.0000  51.7500 Du        
   3582 ****       188.5000   9.2500  48.2500 Du        
   3583 ****       188.5000   9.2500  48.5000 Du        
   3584 ****       188.5000   9.2500  48.7500 Du        
   3585 ****       188.5000   9.2500  49.0000 Du        
   3586 ****       188.5000   9.2500  49.2500 Du        
   3587 ****       188.5000   9.2500  49.5000 Du        
   3588 ****       188.5000   9.2500  49.7500 Du        
   3589 ****       188.5000   9.2500  50.0000 Du        
   3590 ****       188.5000   9.2500  50.2500 Du        
   3591 ****       188.5000   9.2500  50.5000 Du        
   3592 ****       188.5000   9.2500  50.7500 Du        
   3593 ****       188.5000   9.2500  51.0000 Du        
   3594 ****       188.5000   9.2500  51.2500 Du        
   3595 ****       188.5000   9.2500  51.5000 Du        
   3596 ****       188.5000   9.2500  51.7500 Du        
   3597 ****       188.5000   9.2500  52.0000 Du        
   3598 ****       188.5000   9.5000  48.2500 Du        
   3599 ****       188.5000   9.5000  48.5000 Du        
   3600 ****       188.5000   9.5000  48.7500 Du        
   3601 ****       188.5000   9.5000  49.0000 Du        
   3602 ****       188.5000   9.5000  49.2500 Du        
   3603 ****       188.5000   9.5000  49.5000 Du        
   3604 ****       188.5000   9.5000  49.7500 Du        
   3605 ****       188.5000   9.5000  50.0000 Du        
   3606 ****       188.5000   9.5000  50.2500 Du        
   3607 ****       188.5000   9.5000  50.5000 Du        
   3608 ****       188.5000   9.5000  50.7500 Du        
   3609 ****       188.5000   9.5000  51.0000 Du        
   3610 ****       188.5000   9.5000  51.2500 Du        
   3611 ****       188.5000   9.5000  51.5000 Du        
   3612 ****       188.5000   9.5000  51.7500 Du        
   3613 ****       188.5000   9.5000  52.0000 Du        
   3614 ****       188.5000   9.5000  52.2500 Du        
   3615 ****       188.5000   9.7500  48.2500 Du        
   3616 ****       188.5000   9.7500  48.5000 Du        
   3617 ****       188.5000   9.7500  48.7500 Du        
   3618 ****       188.5000   9.7500  49.0000 Du        
   3619 ****       188.5000   9.7500  49.2500 Du        
   3620 ****       188.5000   9.7500  49.5000 Du        
   3621 ****       188.5000   9.7500  49.7500 Du        
   3622 ****       188.5000   9.7500  50.0000 Du        
   3623 ****       188.5000   9.7500  50.2500 Du        
   3624 ****       188.5000   9.7500  50.5000 Du        
   3625 ****       188.5000   9.7500  50.7500 Du        
   3626 ****       188.5000   9.7500  51.0000 Du        
   3627 ****       188.5000   9.7500  51.2500 Du        
   3628 ****       188.5000   9.7500  51.5000 Du        
   3629 ****       188.5000   9.7500  51.7500 Du        
   3630 ****       188.5000   9.7500  52.0000 Du        
   3631 ****       188.5000   9.7500  52.2500 Du        
   3632 ****       188.5000   9.7500  52.5000 Du        
   3633 ****       188.5000  10.0000  48.2500 Du        
   3634 ****       188.5000  10.0000  48.5000 Du        
   3635 ****       188.5000  10.0000  48.7500 Du        
   3636 ****       188.5000  10.0000  49.0000 Du        
   3637 ****       188.5000  10.0000  49.2500 Du        
   3638 ****       188.5000  10.0000  49.5000 Du        
   3639 ****       188.5000  10.0000  49.7500 Du        
   3640 ****       188.5000  10.0000  50.0000 Du        
   3641 ****       188.5000  10.0000  50.2500 Du        
   3642 ****       188.5000  10.0000  50.5000 Du        
   3643 ****       188.5000  10.0000  50.7500 Du        
   3644 ****       188.5000  10.0000  51.0000 Du        
   3645 ****       188.5000  10.0000  51.2500 Du        
   3646 ****       188.5000  10.0000  51.5000 Du        
   3647 ****       188.5000  10.0000  51.7500 Du        
   3648 ****       188.5000  10.0000  52.0000 Du        
   3649 ****       188.5000  10.0000  52.2500 Du        
   3650 ****       188.5000  10.0000  52.5000 Du        
   3651 ****       188.5000  10.0000  52.7500 Du        
   3652 ****       188.5000  10.2500  48.2500 Du        
   3653 ****       188.5000  10.2500  48.5000 Du        
   3654 ****       188.5000  10.2500  48.7500 Du        
   3655 ****       188.5000  10.2500  49.0000 Du        
   3656 ****       188.5000  10.2500  49.2500 Du        
   3657 ****       188.5000  10.2500  49.5000 Du        
   3658 ****       188.5000  10.2500  49.7500 Du        
   3659 ****       188.5000  10.2500  50.0000 Du        
   3660 ****       188.5000  10.2500  50.2500 Du        
   3661 ****       188.5000  10.2500  50.5000 Du        
   3662 ****       188.5000  10.2500  50.7500 Du        
   3663 ****       188.5000  10.2500  51.0000 Du        
   3664 ****       188.5000  10.2500  51.2500 Du        
   3665 ****       188.5000  10.2500  51.5000 Du        
   3666 ****       188.5000  10.2500  51.7500 Du        
   3667 ****       188.5000  10.2500  52.0000 Du        
   3668 ****       188.5000  10.2500  52.2500 Du        
   3669 ****       188.5000  10.2500  52.5000 Du        
   3670 ****       188.5000  10.2500  52.7500 Du        
   3671 ****       188.5000  10.2500  53.0000 Du        
   3672 ****       188.5000  10.5000  48.5000 Du        
   3673 ****       188.5000  10.5000  48.7500 Du        
   3674 ****       188.5000  10.5000  49.0000 Du        
   3675 ****       188.5000  10.5000  49.2500 Du        
   3676 ****       188.5000  10.5000  49.5000 Du        
   3677 ****       188.5000  10.5000  49.7500 Du        
   3678 ****       188.5000  10.5000  50.0000 Du        
   3679 ****       188.5000  10.5000  50.2500 Du        
   3680 ****       188.5000  10.5000  50.5000 Du        
   3681 ****       188.5000  10.5000  50.7500 Du        
   3682 ****       188.5000  10.5000  51.0000 Du        
   3683 ****       188.5000  10.5000  51.2500 Du        
   3684 ****       188.5000  10.5000  51.5000 Du        
   3685 ****       188.5000  10.5000  51.7500 Du        
   3686 ****       188.5000  10.5000  52.0000 Du        
   3687 ****       188.5000  10.5000  52.2500 Du        
   3688 ****       188.5000  10.5000  52.5000 Du        
   3689 ****       188.5000  10.5000  52.7500 Du        
   3690 ****       188.5000  10.5000  53.0000 Du        
   3691 ****       188.5000  10.7500  48.5000 Du        
   3692 ****       188.5000  10.7500  48.7500 Du        
   3693 ****       188.5000  10.7500  49.0000 Du        
   3694 ****       188.5000  10.7500  49.2500 Du        
   3695 ****       188.5000  10.7500  49.5000 Du        
   3696 ****       188.5000  10.7500  49.7500 Du        
   3697 ****       188.5000  10.7500  50.0000 Du        
   3698 ****       188.5000  10.7500  50.2500 Du        
   3699 ****       188.5000  10.7500  50.5000 Du        
   3700 ****       188.5000  10.7500  50.7500 Du        
   3701 ****       188.5000  10.7500  51.0000 Du        
   3702 ****       188.5000  10.7500  51.2500 Du        
   3703 ****       188.5000  10.7500  51.5000 Du        
   3704 ****       188.5000  10.7500  51.7500 Du        
   3705 ****       188.5000  10.7500  52.0000 Du        
   3706 ****       188.5000  10.7500  52.2500 Du        
   3707 ****       188.5000  10.7500  52.5000 Du        
   3708 ****       188.5000  10.7500  52.7500 Du        
   3709 ****       188.5000  11.0000  48.7500 Du        
   3710 ****       188.5000  11.0000  49.0000 Du        
   3711 ****       188.5000  11.0000  49.2500 Du        
   3712 ****       188.5000  11.0000  49.5000 Du        
   3713 ****       188.5000  11.0000  49.7500 Du        
   3714 ****       188.5000  11.0000  50.0000 Du        
   3715 ****       188.5000  11.0000  50.2500 Du        
   3716 ****       188.5000  11.0000  50.5000 Du        
   3717 ****       188.5000  11.0000  50.7500 Du        
   3718 ****       188.5000  11.0000  51.0000 Du        
   3719 ****       188.5000  11.0000  51.2500 Du        
   3720 ****       188.5000  11.0000  51.5000 Du        
   3721 ****       188.5000  11.0000  51.7500 Du        
   3722 ****       188.5000  11.0000  52.0000 Du        
   3723 ****       188.5000  11.0000  52.2500 Du        
   3724 ****       188.5000  11.0000  52.5000 Du        
   3725 ****       188.5000  11.2500  48.7500 Du        
   3726 ****       188.5000  11.2500  49.0000 Du        
   3727 ****       188.5000  11.2500  49.2500 Du        
   3728 ****       188.5000  11.2500  49.5000 Du        
   3729 ****       188.5000  11.2500  49.7500 Du        
   3730 ****       188.5000  11.2500  50.0000 Du        
   3731 ****       188.5000  11.2500  50.2500 Du        
   3732 ****       188.5000  11.2500  50.5000 Du        
   3733 ****       188.5000  11.2500  50.7500 Du        
   3734 ****       188.5000  11.2500  51.0000 Du        
   3735 ****       188.5000  11.2500  51.2500 Du        
   3736 ****       188.5000  11.2500  51.5000 Du        
   3737 ****       188.5000  11.2500  51.7500 Du        
   3738 ****       188.5000  11.2500  52.0000 Du        
   3739 ****       188.5000  11.2500  52.2500 Du        
   3740 ****       188.5000  11.5000  49.0000 Du        
   3741 ****       188.5000  11.5000  49.2500 Du        
   3742 ****       188.5000  11.5000  49.5000 Du        
   3743 ****       188.5000  11.5000  49.7500 Du        
   3744 ****       188.5000  11.5000  50.0000 Du        
   3745 ****       188.5000  11.5000  50.2500 Du        
   3746 ****       188.5000  11.5000  50.5000 Du        
   3747 ****       188.5000  11.5000  50.7500 Du        
   3748 ****       188.5000  11.5000  51.0000 Du        
   3749 ****       188.5000  11.5000  51.2500 Du        
   3750 ****       188.5000  11.5000  51.5000 Du        
   3751 ****       188.5000  11.5000  51.7500 Du        
   3752 ****       188.5000  11.5000  52.0000 Du        
   3753 ****       188.5000  11.7500  49.0000 Du        
   3754 ****       188.5000  11.7500  49.2500 Du        
   3755 ****       188.5000  11.7500  49.5000 Du        
   3756 ****       188.5000  11.7500  49.7500 Du        
   3757 ****       188.5000  11.7500  50.0000 Du        
   3758 ****       188.5000  11.7500  50.2500 Du        
   3759 ****       188.5000  11.7500  50.5000 Du        
   3760 ****       188.5000  11.7500  50.7500 Du        
   3761 ****       188.5000  11.7500  51.0000 Du        
   3762 ****       188.5000  11.7500  51.2500 Du        
   3763 ****       188.5000  11.7500  51.5000 Du        
   3764 ****       188.5000  11.7500  51.7500 Du        
   3765 ****       188.5000  12.0000  49.0000 Du        
   3766 ****       188.5000  12.0000  49.2500 Du        
   3767 ****       188.5000  12.0000  49.5000 Du        
   3768 ****       188.5000  12.0000  49.7500 Du        
   3769 ****       188.5000  12.0000  50.0000 Du        
   3770 ****       188.5000  12.0000  50.2500 Du        
   3771 ****       188.5000  12.0000  50.5000 Du        
   3772 ****       188.5000  12.0000  50.7500 Du        
   3773 ****       188.5000  12.0000  51.0000 Du        
   3774 ****       188.5000  12.0000  51.2500 Du        
   3775 ****       188.5000  12.0000  51.5000 Du        
   3776 ****       188.5000  12.2500  49.2500 Du        
   3777 ****       188.5000  12.2500  49.5000 Du        
   3778 ****       188.5000  12.2500  49.7500 Du        
   3779 ****       188.5000  12.2500  50.0000 Du        
   3780 ****       188.5000  12.2500  50.2500 Du        
   3781 ****       188.5000  12.2500  50.5000 Du        
   3782 ****       188.5000  12.2500  50.7500 Du        
   3783 ****       188.5000  12.2500  51.0000 Du        
   3784 ****       188.5000  12.5000  49.2500 Du        
   3785 ****       188.5000  12.5000  49.5000 Du        
   3786 ****       188.5000  12.5000  49.7500 Du        
   3787 ****       188.5000  12.5000  50.0000 Du        
   3788 ****       188.5000  12.5000  50.2500 Du        
   3789 ****       188.5000  12.5000  50.5000 Du        
   3790 ****       188.5000  12.5000  50.7500 Du        
   3791 ****       188.5000  12.7500  49.2500 Du        
   3792 ****       188.5000  12.7500  49.5000 Du        
   3793 ****       188.5000  12.7500  49.7500 Du        
   3794 ****       188.5000  12.7500  50.0000 Du        
   3795 ****       188.5000  12.7500  50.2500 Du        
   3796 ****       188.5000  12.7500  50.5000 Du        
   3797 ****       188.5000  13.0000  49.2500 Du        
   3798 ****       188.5000  13.0000  49.5000 Du        
   3799 ****       188.5000  13.0000  49.7500 Du        
   3800 ****       188.5000  13.0000  50.0000 Du        
   3801 ****       188.5000  13.2500  49.2500 Du        
   3802 ****       188.5000  13.2500  49.5000 Du        
   3803 ****       188.5000  13.2500  49.7500 Du        
   3804 ****       188.5000  13.5000  49.2500 Du        
   3805 ****       188.5000  15.7500  47.7500 Du        
   3806 ****       188.5000  16.0000  47.2500 Du        
   3807 ****       188.5000  16.0000  47.5000 Du        
   3808 ****       188.5000  16.0000  47.7500 Du        
   3809 ****       188.5000  16.2500  45.0000 Du        
   3810 ****       188.5000  16.2500  45.2500 Du        
   3811 ****       188.5000  16.2500  45.5000 Du        
   3812 ****       188.5000  16.2500  45.7500 Du        
   3813 ****       188.5000  16.2500  46.0000 Du        
   3814 ****       188.5000  16.2500  47.0000 Du        
   3815 ****       188.5000  16.2500  47.2500 Du        
   3816 ****       188.5000  16.2500  47.5000 Du        
   3817 ****       188.5000  16.2500  47.7500 Du        
   3818 ****       188.5000  16.5000  45.0000 Du        
   3819 ****       188.5000  16.5000  45.2500 Du        
   3820 ****       188.5000  16.5000  45.5000 Du        
   3821 ****       188.5000  16.5000  45.7500 Du        
   3822 ****       188.5000  16.5000  46.0000 Du        
   3823 ****       188.5000  16.5000  46.2500 Du        
   3824 ****       188.5000  16.7500  44.7500 Du        
   3825 ****       188.5000  16.7500  45.0000 Du        
   3826 ****       188.5000  16.7500  45.2500 Du        
   3827 ****       188.5000  16.7500  45.5000 Du        
   3828 ****       188.5000  16.7500  45.7500 Du        
   3829 ****       188.5000  16.7500  46.0000 Du        
   3830 ****       188.5000  16.7500  46.2500 Du        
   3831 ****       188.5000  17.0000  44.7500 Du        
   3832 ****       188.5000  17.0000  45.0000 Du        
   3833 ****       188.5000  17.0000  45.2500 Du        
   3834 ****       188.5000  17.0000  45.5000 Du        
   3835 ****       188.5000  17.0000  45.7500 Du        
   3836 ****       188.5000  17.0000  46.0000 Du        
   3837 ****       188.5000  17.0000  46.2500 Du        
   3838 ****       188.5000  17.2500  44.7500 Du        
   3839 ****       188.5000  17.2500  45.0000 Du        
   3840 ****       188.5000  17.2500  45.2500 Du        
   3841 ****       188.5000  17.2500  45.5000 Du        
   3842 ****       188.5000  17.2500  45.7500 Du        
   3843 ****       188.5000  17.5000  44.7500 Du        
   3844 ****       188.5000  17.5000  45.0000 Du        
   3845 ****       188.5000  17.5000  45.2500 Du        
   3846 ****       188.7500   8.2500  49.0000 Du        
   3847 ****       188.7500   8.5000  48.5000 Du        
   3848 ****       188.7500   8.5000  48.7500 Du        
   3849 ****       188.7500   8.5000  49.0000 Du        
   3850 ****       188.7500   8.5000  49.2500 Du        
   3851 ****       188.7500   8.5000  49.5000 Du        
   3852 ****       188.7500   8.5000  49.7500 Du        
   3853 ****       188.7500   8.5000  50.0000 Du        
   3854 ****       188.7500   8.5000  50.2500 Du        
   3855 ****       188.7500   8.5000  50.5000 Du        
   3856 ****       188.7500   8.7500  48.5000 Du        
   3857 ****       188.7500   8.7500  48.7500 Du        
   3858 ****       188.7500   8.7500  49.0000 Du        
   3859 ****       188.7500   8.7500  49.2500 Du        
   3860 ****       188.7500   8.7500  49.5000 Du        
   3861 ****       188.7500   8.7500  49.7500 Du        
   3862 ****       188.7500   8.7500  50.0000 Du        
   3863 ****       188.7500   8.7500  50.2500 Du        
   3864 ****       188.7500   8.7500  50.5000 Du        
   3865 ****       188.7500   8.7500  50.7500 Du        
   3866 ****       188.7500   8.7500  51.0000 Du        
   3867 ****       188.7500   9.0000  48.5000 Du        
   3868 ****       188.7500   9.0000  48.7500 Du        
   3869 ****       188.7500   9.0000  49.0000 Du        
   3870 ****       188.7500   9.0000  49.2500 Du        
   3871 ****       188.7500   9.0000  49.5000 Du        
   3872 ****       188.7500   9.0000  49.7500 Du        
   3873 ****       188.7500   9.0000  50.0000 Du        
   3874 ****       188.7500   9.0000  50.2500 Du        
   3875 ****       188.7500   9.0000  50.5000 Du        
   3876 ****       188.7500   9.0000  50.7500 Du        
   3877 ****       188.7500   9.0000  51.0000 Du        
   3878 ****       188.7500   9.0000  51.2500 Du        
   3879 ****       188.7500   9.0000  51.5000 Du        
   3880 ****       188.7500   9.2500  48.5000 Du        
   3881 ****       188.7500   9.2500  48.7500 Du        
   3882 ****       188.7500   9.2500  49.0000 Du        
   3883 ****       188.7500   9.2500  49.2500 Du        
   3884 ****       188.7500   9.2500  49.5000 Du        
   3885 ****       188.7500   9.2500  49.7500 Du        
   3886 ****       188.7500   9.2500  50.0000 Du        
   3887 ****       188.7500   9.2500  50.2500 Du        
   3888 ****       188.7500   9.2500  50.5000 Du        
   3889 ****       188.7500   9.2500  50.7500 Du        
   3890 ****       188.7500   9.2500  51.0000 Du        
   3891 ****       188.7500   9.2500  51.2500 Du        
   3892 ****       188.7500   9.2500  51.5000 Du        
   3893 ****       188.7500   9.2500  51.7500 Du        
   3894 ****       188.7500   9.5000  48.5000 Du        
   3895 ****       188.7500   9.5000  48.7500 Du        
   3896 ****       188.7500   9.5000  49.0000 Du        
   3897 ****       188.7500   9.5000  49.2500 Du        
   3898 ****       188.7500   9.5000  49.5000 Du        
   3899 ****       188.7500   9.5000  49.7500 Du        
   3900 ****       188.7500   9.5000  50.0000 Du        
   3901 ****       188.7500   9.5000  50.2500 Du        
   3902 ****       188.7500   9.5000  50.5000 Du        
   3903 ****       188.7500   9.5000  50.7500 Du        
   3904 ****       188.7500   9.5000  51.0000 Du        
   3905 ****       188.7500   9.5000  51.2500 Du        
   3906 ****       188.7500   9.5000  51.5000 Du        
   3907 ****       188.7500   9.5000  51.7500 Du        
   3908 ****       188.7500   9.5000  52.0000 Du        
   3909 ****       188.7500   9.7500  48.5000 Du        
   3910 ****       188.7500   9.7500  48.7500 Du        
   3911 ****       188.7500   9.7500  49.0000 Du        
   3912 ****       188.7500   9.7500  49.2500 Du        
   3913 ****       188.7500   9.7500  49.5000 Du        
   3914 ****       188.7500   9.7500  49.7500 Du        
   3915 ****       188.7500   9.7500  50.0000 Du        
   3916 ****       188.7500   9.7500  50.2500 Du        
   3917 ****       188.7500   9.7500  50.5000 Du        
   3918 ****       188.7500   9.7500  50.7500 Du        
   3919 ****       188.7500   9.7500  51.0000 Du        
   3920 ****       188.7500   9.7500  51.2500 Du        
   3921 ****       188.7500   9.7500  51.5000 Du        
   3922 ****       188.7500   9.7500  51.7500 Du        
   3923 ****       188.7500   9.7500  52.0000 Du        
   3924 ****       188.7500   9.7500  52.2500 Du        
   3925 ****       188.7500  10.0000  48.5000 Du        
   3926 ****       188.7500  10.0000  48.7500 Du        
   3927 ****       188.7500  10.0000  49.0000 Du        
   3928 ****       188.7500  10.0000  49.2500 Du        
   3929 ****       188.7500  10.0000  49.5000 Du        
   3930 ****       188.7500  10.0000  49.7500 Du        
   3931 ****       188.7500  10.0000  50.0000 Du        
   3932 ****       188.7500  10.0000  50.2500 Du        
   3933 ****       188.7500  10.0000  50.5000 Du        
   3934 ****       188.7500  10.0000  50.7500 Du        
   3935 ****       188.7500  10.0000  51.0000 Du        
   3936 ****       188.7500  10.0000  51.2500 Du        
   3937 ****       188.7500  10.0000  51.5000 Du        
   3938 ****       188.7500  10.0000  51.7500 Du        
   3939 ****       188.7500  10.0000  52.0000 Du        
   3940 ****       188.7500  10.0000  52.2500 Du        
   3941 ****       188.7500  10.0000  52.5000 Du        
   3942 ****       188.7500  10.2500  48.5000 Du        
   3943 ****       188.7500  10.2500  48.7500 Du        
   3944 ****       188.7500  10.2500  49.0000 Du        
   3945 ****       188.7500  10.2500  49.2500 Du        
   3946 ****       188.7500  10.2500  49.5000 Du        
   3947 ****       188.7500  10.2500  49.7500 Du        
   3948 ****       188.7500  10.2500  50.0000 Du        
   3949 ****       188.7500  10.2500  50.2500 Du        
   3950 ****       188.7500  10.2500  50.5000 Du        
   3951 ****       188.7500  10.2500  50.7500 Du        
   3952 ****       188.7500  10.2500  51.0000 Du        
   3953 ****       188.7500  10.2500  51.2500 Du        
   3954 ****       188.7500  10.2500  51.5000 Du        
   3955 ****       188.7500  10.2500  51.7500 Du        
   3956 ****       188.7500  10.2500  52.0000 Du        
   3957 ****       188.7500  10.2500  52.2500 Du        
   3958 ****       188.7500  10.2500  52.5000 Du        
   3959 ****       188.7500  10.2500  52.7500 Du        
   3960 ****       188.7500  10.5000  48.5000 Du        
   3961 ****       188.7500  10.5000  48.7500 Du        
   3962 ****       188.7500  10.5000  49.0000 Du        
   3963 ****       188.7500  10.5000  49.2500 Du        
   3964 ****       188.7500  10.5000  49.5000 Du        
   3965 ****       188.7500  10.5000  49.7500 Du        
   3966 ****       188.7500  10.5000  50.0000 Du        
   3967 ****       188.7500  10.5000  50.2500 Du        
   3968 ****       188.7500  10.5000  50.5000 Du        
   3969 ****       188.7500  10.5000  50.7500 Du        
   3970 ****       188.7500  10.5000  51.0000 Du        
   3971 ****       188.7500  10.5000  51.2500 Du        
   3972 ****       188.7500  10.5000  51.5000 Du        
   3973 ****       188.7500  10.5000  51.7500 Du        
   3974 ****       188.7500  10.5000  52.0000 Du        
   3975 ****       188.7500  10.5000  52.2500 Du        
   3976 ****       188.7500  10.5000  52.5000 Du        
   3977 ****       188.7500  10.5000  52.7500 Du        
   3978 ****       188.7500  10.7500  48.5000 Du        
   3979 ****       188.7500  10.7500  48.7500 Du        
   3980 ****       188.7500  10.7500  49.0000 Du        
   3981 ****       188.7500  10.7500  49.2500 Du        
   3982 ****       188.7500  10.7500  49.5000 Du        
   3983 ****       188.7500  10.7500  49.7500 Du        
   3984 ****       188.7500  10.7500  50.0000 Du        
   3985 ****       188.7500  10.7500  50.2500 Du        
   3986 ****       188.7500  10.7500  50.5000 Du        
   3987 ****       188.7500  10.7500  50.7500 Du        
   3988 ****       188.7500  10.7500  51.0000 Du        
   3989 ****       188.7500  10.7500  51.2500 Du        
   3990 ****       188.7500  10.7500  51.5000 Du        
   3991 ****       188.7500  10.7500  51.7500 Du        
   3992 ****       188.7500  10.7500  52.0000 Du        
   3993 ****       188.7500  10.7500  52.2500 Du        
   3994 ****       188.7500  10.7500  52.5000 Du        
   3995 ****       188.7500  10.7500  52.7500 Du        
   3996 ****       188.7500  11.0000  48.5000 Du        
   3997 ****       188.7500  11.0000  48.7500 Du        
   3998 ****       188.7500  11.0000  49.0000 Du        
   3999 ****       188.7500  11.0000  49.2500 Du        
   4000 ****       188.7500  11.0000  49.5000 Du        
   4001 ****       188.7500  11.0000  49.7500 Du        
   4002 ****       188.7500  11.0000  50.0000 Du        
   4003 ****       188.7500  11.0000  50.2500 Du        
   4004 ****       188.7500  11.0000  50.5000 Du        
   4005 ****       188.7500  11.0000  50.7500 Du        
   4006 ****       188.7500  11.0000  51.0000 Du        
   4007 ****       188.7500  11.0000  51.2500 Du        
   4008 ****       188.7500  11.0000  51.5000 Du        
   4009 ****       188.7500  11.0000  51.7500 Du        
   4010 ****       188.7500  11.0000  52.0000 Du        
   4011 ****       188.7500  11.0000  52.2500 Du        
   4012 ****       188.7500  11.0000  52.5000 Du        
   4013 ****       188.7500  11.2500  48.7500 Du        
   4014 ****       188.7500  11.2500  49.0000 Du        
   4015 ****       188.7500  11.2500  49.2500 Du        
   4016 ****       188.7500  11.2500  49.5000 Du        
   4017 ****       188.7500  11.2500  49.7500 Du        
   4018 ****       188.7500  11.2500  50.0000 Du        
   4019 ****       188.7500  11.2500  50.2500 Du        
   4020 ****       188.7500  11.2500  50.5000 Du        
   4021 ****       188.7500  11.2500  50.7500 Du        
   4022 ****       188.7500  11.2500  51.0000 Du        
   4023 ****       188.7500  11.2500  51.2500 Du        
   4024 ****       188.7500  11.2500  51.5000 Du        
   4025 ****       188.7500  11.2500  51.7500 Du        
   4026 ****       188.7500  11.2500  52.0000 Du        
   4027 ****       188.7500  11.2500  52.2500 Du        
   4028 ****       188.7500  11.5000  48.7500 Du        
   4029 ****       188.7500  11.5000  49.0000 Du        
   4030 ****       188.7500  11.5000  49.2500 Du        
   4031 ****       188.7500  11.5000  49.5000 Du        
   4032 ****       188.7500  11.5000  49.7500 Du        
   4033 ****       188.7500  11.5000  50.0000 Du        
   4034 ****       188.7500  11.5000  50.2500 Du        
   4035 ****       188.7500  11.5000  50.5000 Du        
   4036 ****       188.7500  11.5000  50.7500 Du        
   4037 ****       188.7500  11.5000  51.0000 Du        
   4038 ****       188.7500  11.5000  51.2500 Du        
   4039 ****       188.7500  11.5000  51.5000 Du        
   4040 ****       188.7500  11.5000  51.7500 Du        
   4041 ****       188.7500  11.5000  52.0000 Du        
   4042 ****       188.7500  11.7500  49.0000 Du        
   4043 ****       188.7500  11.7500  49.2500 Du        
   4044 ****       188.7500  11.7500  49.5000 Du        
   4045 ****       188.7500  11.7500  49.7500 Du        
   4046 ****       188.7500  11.7500  50.0000 Du        
   4047 ****       188.7500  11.7500  50.2500 Du        
   4048 ****       188.7500  11.7500  50.5000 Du        
   4049 ****       188.7500  11.7500  50.7500 Du        
   4050 ****       188.7500  11.7500  51.0000 Du        
   4051 ****       188.7500  11.7500  51.2500 Du        
   4052 ****       188.7500  11.7500  51.5000 Du        
   4053 ****       188.7500  11.7500  51.7500 Du        
   4054 ****       188.7500  12.0000  49.0000 Du        
   4055 ****       188.7500  12.0000  49.2500 Du        
   4056 ****       188.7500  12.0000  49.5000 Du        
   4057 ****       188.7500  12.0000  49.7500 Du        
   4058 ****       188.7500  12.0000  50.0000 Du        
   4059 ****       188.7500  12.0000  50.2500 Du        
   4060 ****       188.7500  12.0000  50.5000 Du        
   4061 ****       188.7500  12.0000  50.7500 Du        
   4062 ****       188.7500  12.0000  51.0000 Du        
   4063 ****       188.7500  12.0000  51.2500 Du        
   4064 ****       188.7500  12.0000  51.5000 Du        
   4065 ****       188.7500  12.2500  49.0000 Du        
   4066 ****       188.7500  12.2500  49.2500 Du        
   4067 ****       188.7500  12.2500  49.5000 Du        
   4068 ****       188.7500  12.2500  49.7500 Du        
   4069 ****       188.7500  12.2500  50.0000 Du        
   4070 ****       188.7500  12.2500  50.2500 Du        
   4071 ****       188.7500  12.2500  50.5000 Du        
   4072 ****       188.7500  12.2500  50.7500 Du        
   4073 ****       188.7500  12.2500  51.0000 Du        
   4074 ****       188.7500  12.2500  51.2500 Du        
   4075 ****       188.7500  12.5000  49.0000 Du        
   4076 ****       188.7500  12.5000  49.2500 Du        
   4077 ****       188.7500  12.5000  49.5000 Du        
   4078 ****       188.7500  12.5000  49.7500 Du        
   4079 ****       188.7500  12.5000  50.0000 Du        
   4080 ****       188.7500  12.5000  50.2500 Du        
   4081 ****       188.7500  12.5000  50.5000 Du        
   4082 ****       188.7500  12.5000  50.7500 Du        
   4083 ****       188.7500  12.7500  49.0000 Du        
   4084 ****       188.7500  12.7500  49.2500 Du        
   4085 ****       188.7500  12.7500  49.5000 Du        
   4086 ****       188.7500  12.7500  49.7500 Du        
   4087 ****       188.7500  12.7500  50.0000 Du        
   4088 ****       188.7500  12.7500  50.2500 Du        
   4089 ****       188.7500  13.0000  49.0000 Du        
   4090 ****       188.7500  13.0000  49.2500 Du        
   4091 ****       188.7500  13.0000  49.5000 Du        
   4092 ****       188.7500  13.0000  49.7500 Du        
   4093 ****       188.7500  13.2500  49.2500 Du        
   4094 ****       188.7500  15.7500  47.5000 Du        
   4095 ****       188.7500  15.7500  47.7500 Du        
   4096 ****       188.7500  16.0000  47.5000 Du        
   4097 ****       188.7500  16.0000  47.7500 Du        
   4098 ****       188.7500  16.2500  45.0000 Du        
   4099 ****       188.7500  16.2500  45.2500 Du        
   4100 ****       188.7500  16.2500  45.5000 Du        
   4101 ****       188.7500  16.2500  47.5000 Du        
   4102 ****       188.7500  16.2500  47.7500 Du        
   4103 ****       188.7500  16.5000  45.0000 Du        
   4104 ****       188.7500  16.5000  45.2500 Du        
   4105 ****       188.7500  16.5000  45.5000 Du        
   4106 ****       188.7500  16.7500  44.7500 Du        
   4107 ****       188.7500  16.7500  45.0000 Du        
   4108 ****       188.7500  16.7500  45.2500 Du        
   4109 ****       188.7500  16.7500  45.5000 Du        
   4110 ****       188.7500  17.0000  44.7500 Du        
   4111 ****       188.7500  17.0000  45.0000 Du        
   4112 ****       188.7500  17.0000  45.2500 Du        
   4113 ****       188.7500  17.0000  45.5000 Du        
   4114 ****       188.7500  17.2500  44.7500 Du        
   4115 ****       188.7500  17.2500  45.0000 Du        
   4116 ****       188.7500  17.2500  45.2500 Du        
   4117 ****       188.7500  17.5000  45.0000 Du        
   4118 ****       188.7500  23.5000  49.0000 Du        
   4119 ****       188.7500  23.7500  48.7500 Du        
   4120 ****       188.7500  23.7500  49.0000 Du        
   4121 ****       189.0000   8.5000  48.7500 Du        
   4122 ****       189.0000   8.5000  49.0000 Du        
   4123 ****       189.0000   8.5000  49.2500 Du        
   4124 ****       189.0000   8.5000  49.5000 Du        
   4125 ****       189.0000   8.5000  49.7500 Du        
   4126 ****       189.0000   8.7500  48.5000 Du        
   4127 ****       189.0000   8.7500  48.7500 Du        
   4128 ****       189.0000   8.7500  49.0000 Du        
   4129 ****       189.0000   8.7500  49.2500 Du        
   4130 ****       189.0000   8.7500  49.5000 Du        
   4131 ****       189.0000   8.7500  49.7500 Du        
   4132 ****       189.0000   8.7500  50.0000 Du        
   4133 ****       189.0000   8.7500  50.2500 Du        
   4134 ****       189.0000   9.0000  48.5000 Du        
   4135 ****       189.0000   9.0000  48.7500 Du        
   4136 ****       189.0000   9.0000  49.0000 Du        
   4137 ****       189.0000   9.0000  49.2500 Du        
   4138 ****       189.0000   9.0000  49.5000 Du        
   4139 ****       189.0000   9.0000  49.7500 Du        
   4140 ****       189.0000   9.0000  50.0000 Du        
   4141 ****       189.0000   9.0000  50.2500 Du        
   4142 ****       189.0000   9.0000  50.5000 Du        
   4143 ****       189.0000   9.0000  50.7500 Du        
   4144 ****       189.0000   9.2500  48.7500 Du        
   4145 ****       189.0000   9.2500  49.0000 Du        
   4146 ****       189.0000   9.2500  49.2500 Du        
   4147 ****       189.0000   9.2500  49.5000 Du        
   4148 ****       189.0000   9.2500  49.7500 Du        
   4149 ****       189.0000   9.2500  50.0000 Du        
   4150 ****       189.0000   9.2500  50.2500 Du        
   4151 ****       189.0000   9.2500  50.5000 Du        
   4152 ****       189.0000   9.2500  50.7500 Du        
   4153 ****       189.0000   9.2500  51.0000 Du        
   4154 ****       189.0000   9.5000  48.7500 Du        
   4155 ****       189.0000   9.5000  49.0000 Du        
   4156 ****       189.0000   9.5000  49.2500 Du        
   4157 ****       189.0000   9.5000  49.5000 Du        
   4158 ****       189.0000   9.5000  49.7500 Du        
   4159 ****       189.0000   9.5000  50.0000 Du        
   4160 ****       189.0000   9.5000  50.2500 Du        
   4161 ****       189.0000   9.5000  50.5000 Du        
   4162 ****       189.0000   9.5000  50.7500 Du        
   4163 ****       189.0000   9.5000  51.0000 Du        
   4164 ****       189.0000   9.5000  51.2500 Du        
   4165 ****       189.0000   9.7500  48.7500 Du        
   4166 ****       189.0000   9.7500  49.0000 Du        
   4167 ****       189.0000   9.7500  49.2500 Du        
   4168 ****       189.0000   9.7500  49.5000 Du        
   4169 ****       189.0000   9.7500  49.7500 Du        
   4170 ****       189.0000   9.7500  50.0000 Du        
   4171 ****       189.0000   9.7500  50.2500 Du        
   4172 ****       189.0000   9.7500  50.5000 Du        
   4173 ****       189.0000   9.7500  50.7500 Du        
   4174 ****       189.0000   9.7500  51.0000 Du        
   4175 ****       189.0000   9.7500  51.2500 Du        
   4176 ****       189.0000   9.7500  51.5000 Du        
   4177 ****       189.0000   9.7500  51.7500 Du        
   4178 ****       189.0000  10.0000  48.7500 Du        
   4179 ****       189.0000  10.0000  49.0000 Du        
   4180 ****       189.0000  10.0000  49.2500 Du        
   4181 ****       189.0000  10.0000  49.5000 Du        
   4182 ****       189.0000  10.0000  49.7500 Du        
   4183 ****       189.0000  10.0000  50.0000 Du        
   4184 ****       189.0000  10.0000  50.2500 Du        
   4185 ****       189.0000  10.0000  50.5000 Du        
   4186 ****       189.0000  10.0000  50.7500 Du        
   4187 ****       189.0000  10.0000  51.0000 Du        
   4188 ****       189.0000  10.0000  51.2500 Du        
   4189 ****       189.0000  10.0000  51.5000 Du        
   4190 ****       189.0000  10.0000  51.7500 Du        
   4191 ****       189.0000  10.2500  48.7500 Du        
   4192 ****       189.0000  10.2500  49.0000 Du        
   4193 ****       189.0000  10.2500  49.2500 Du        
   4194 ****       189.0000  10.2500  49.5000 Du        
   4195 ****       189.0000  10.2500  49.7500 Du        
   4196 ****       189.0000  10.2500  50.0000 Du        
   4197 ****       189.0000  10.2500  50.2500 Du        
   4198 ****       189.0000  10.2500  50.5000 Du        
   4199 ****       189.0000  10.2500  50.7500 Du        
   4200 ****       189.0000  10.2500  51.0000 Du        
   4201 ****       189.0000  10.2500  51.2500 Du        
   4202 ****       189.0000  10.2500  51.5000 Du        
   4203 ****       189.0000  10.2500  51.7500 Du        
   4204 ****       189.0000  10.2500  52.0000 Du        
   4205 ****       189.0000  10.5000  48.5000 Du        
   4206 ****       189.0000  10.5000  48.7500 Du        
   4207 ****       189.0000  10.5000  49.0000 Du        
   4208 ****       189.0000  10.5000  49.2500 Du        
   4209 ****       189.0000  10.5000  49.5000 Du        
   4210 ****       189.0000  10.5000  49.7500 Du        
   4211 ****       189.0000  10.5000  50.0000 Du        
   4212 ****       189.0000  10.5000  50.2500 Du        
   4213 ****       189.0000  10.5000  50.5000 Du        
   4214 ****       189.0000  10.5000  50.7500 Du        
   4215 ****       189.0000  10.5000  51.0000 Du        
   4216 ****       189.0000  10.5000  51.2500 Du        
   4217 ****       189.0000  10.5000  51.5000 Du        
   4218 ****       189.0000  10.5000  51.7500 Du        
   4219 ****       189.0000  10.5000  52.0000 Du        
   4220 ****       189.0000  10.5000  52.2500 Du        
   4221 ****       189.0000  10.7500  48.5000 Du        
   4222 ****       189.0000  10.7500  48.7500 Du        
   4223 ****       189.0000  10.7500  49.0000 Du        
   4224 ****       189.0000  10.7500  49.2500 Du        
   4225 ****       189.0000  10.7500  49.5000 Du        
   4226 ****       189.0000  10.7500  49.7500 Du        
   4227 ****       189.0000  10.7500  50.0000 Du        
   4228 ****       189.0000  10.7500  50.2500 Du        
   4229 ****       189.0000  10.7500  50.5000 Du        
   4230 ****       189.0000  10.7500  50.7500 Du        
   4231 ****       189.0000  10.7500  51.0000 Du        
   4232 ****       189.0000  10.7500  51.2500 Du        
   4233 ****       189.0000  10.7500  51.5000 Du        
   4234 ****       189.0000  10.7500  51.7500 Du        
   4235 ****       189.0000  10.7500  52.0000 Du        
   4236 ****       189.0000  10.7500  52.2500 Du        
   4237 ****       189.0000  11.0000  48.5000 Du        
   4238 ****       189.0000  11.0000  48.7500 Du        
   4239 ****       189.0000  11.0000  49.0000 Du        
   4240 ****       189.0000  11.0000  49.2500 Du        
   4241 ****       189.0000  11.0000  49.5000 Du        
   4242 ****       189.0000  11.0000  49.7500 Du        
   4243 ****       189.0000  11.0000  50.0000 Du        
   4244 ****       189.0000  11.0000  50.2500 Du        
   4245 ****       189.0000  11.0000  50.5000 Du        
   4246 ****       189.0000  11.0000  50.7500 Du        
   4247 ****       189.0000  11.0000  51.0000 Du        
   4248 ****       189.0000  11.0000  51.2500 Du        
   4249 ****       189.0000  11.0000  51.5000 Du        
   4250 ****       189.0000  11.0000  51.7500 Du        
   4251 ****       189.0000  11.0000  52.0000 Du        
   4252 ****       189.0000  11.0000  52.2500 Du        
   4253 ****       189.0000  11.2500  48.5000 Du        
   4254 ****       189.0000  11.2500  48.7500 Du        
   4255 ****       189.0000  11.2500  49.0000 Du        
   4256 ****       189.0000  11.2500  49.2500 Du        
   4257 ****       189.0000  11.2500  49.5000 Du        
   4258 ****       189.0000  11.2500  49.7500 Du        
   4259 ****       189.0000  11.2500  50.0000 Du        
   4260 ****       189.0000  11.2500  50.2500 Du        
   4261 ****       189.0000  11.2500  50.5000 Du        
   4262 ****       189.0000  11.2500  50.7500 Du        
   4263 ****       189.0000  11.2500  51.0000 Du        
   4264 ****       189.0000  11.2500  51.2500 Du        
   4265 ****       189.0000  11.2500  51.5000 Du        
   4266 ****       189.0000  11.2500  51.7500 Du        
   4267 ****       189.0000  11.2500  52.0000 Du        
   4268 ****       189.0000  11.5000  48.7500 Du        
   4269 ****       189.0000  11.5000  49.0000 Du        
   4270 ****       189.0000  11.5000  49.2500 Du        
   4271 ****       189.0000  11.5000  49.5000 Du        
   4272 ****       189.0000  11.5000  49.7500 Du        
   4273 ****       189.0000  11.5000  50.0000 Du        
   4274 ****       189.0000  11.5000  50.2500 Du        
   4275 ****       189.0000  11.5000  50.5000 Du        
   4276 ****       189.0000  11.5000  50.7500 Du        
   4277 ****       189.0000  11.5000  51.0000 Du        
   4278 ****       189.0000  11.5000  51.2500 Du        
   4279 ****       189.0000  11.5000  51.5000 Du        
   4280 ****       189.0000  11.5000  51.7500 Du        
   4281 ****       189.0000  11.7500  48.7500 Du        
   4282 ****       189.0000  11.7500  49.0000 Du        
   4283 ****       189.0000  11.7500  49.2500 Du        
   4284 ****       189.0000  11.7500  49.5000 Du        
   4285 ****       189.0000  11.7500  49.7500 Du        
   4286 ****       189.0000  11.7500  50.0000 Du        
   4287 ****       189.0000  11.7500  50.2500 Du        
   4288 ****       189.0000  11.7500  50.5000 Du        
   4289 ****       189.0000  11.7500  50.7500 Du        
   4290 ****       189.0000  11.7500  51.0000 Du        
   4291 ****       189.0000  11.7500  51.2500 Du        
   4292 ****       189.0000  11.7500  51.5000 Du        
   4293 ****       189.0000  11.7500  51.7500 Du        
   4294 ****       189.0000  12.0000  48.7500 Du        
   4295 ****       189.0000  12.0000  49.0000 Du        
   4296 ****       189.0000  12.0000  49.2500 Du        
   4297 ****       189.0000  12.0000  49.5000 Du        
   4298 ****       189.0000  12.0000  49.7500 Du        
   4299 ****       189.0000  12.0000  50.0000 Du        
   4300 ****       189.0000  12.0000  50.2500 Du        
   4301 ****       189.0000  12.0000  50.5000 Du        
   4302 ****       189.0000  12.0000  50.7500 Du        
   4303 ****       189.0000  12.0000  51.0000 Du        
   4304 ****       189.0000  12.0000  51.2500 Du        
   4305 ****       189.0000  12.0000  51.5000 Du        
   4306 ****       189.0000  12.2500  49.0000 Du        
   4307 ****       189.0000  12.2500  49.2500 Du        
   4308 ****       189.0000  12.2500  49.5000 Du        
   4309 ****       189.0000  12.2500  49.7500 Du        
   4310 ****       189.0000  12.2500  50.0000 Du        
   4311 ****       189.0000  12.2500  50.2500 Du        
   4312 ****       189.0000  12.2500  50.5000 Du        
   4313 ****       189.0000  12.2500  50.7500 Du        
   4314 ****       189.0000  12.2500  51.0000 Du        
   4315 ****       189.0000  12.5000  49.0000 Du        
   4316 ****       189.0000  12.5000  49.2500 Du        
   4317 ****       189.0000  12.5000  49.5000 Du        
   4318 ****       189.0000  12.5000  49.7500 Du        
   4319 ****       189.0000  12.5000  50.0000 Du        
   4320 ****       189.0000  12.5000  50.2500 Du        
   4321 ****       189.0000  12.5000  50.5000 Du        
   4322 ****       189.0000  12.7500  49.0000 Du        
   4323 ****       189.0000  12.7500  49.2500 Du        
   4324 ****       189.0000  12.7500  49.5000 Du        
   4325 ****       189.0000  12.7500  49.7500 Du        
   4326 ****       189.0000  12.7500  50.0000 Du        
   4327 ****       189.0000  13.0000  49.0000 Du        
   4328 ****       189.0000  13.0000  49.2500 Du        
   4329 ****       189.0000  13.0000  49.5000 Du        
   4330 ****       189.0000  16.2500  45.0000 Du        
   4331 ****       189.0000  16.5000  45.0000 Du        
   4332 ****       189.0000  16.7500  44.7500 Du        
   4333 ****       189.0000  16.7500  45.0000 Du        
   4334 ****       189.0000  17.0000  44.7500 Du        
   4335 ****       189.0000  17.2500  44.7500 Du        
   4336 ****       189.0000  17.7500  44.2500 Du        
   4337 ****       189.0000  18.0000  44.2500 Du        
   4338 ****       189.0000  18.2500  44.2500 Du        
   4339 ****       189.0000  23.7500  49.0000 Du        
   4340 ****       189.2500   8.7500  48.7500 Du        
   4341 ****       189.2500   8.7500  49.0000 Du        
   4342 ****       189.2500   8.7500  49.2500 Du        
   4343 ****       189.2500   8.7500  49.5000 Du        
   4344 ****       189.2500   8.7500  49.7500 Du        
   4345 ****       189.2500   9.0000  48.7500 Du        
   4346 ****       189.2500   9.0000  49.0000 Du        
   4347 ****       189.2500   9.0000  49.2500 Du        
   4348 ****       189.2500   9.0000  49.5000 Du        
   4349 ****       189.2500   9.0000  49.7500 Du        
   4350 ****       189.2500   9.0000  50.0000 Du        
   4351 ****       189.2500   9.0000  50.2500 Du        
   4352 ****       189.2500   9.2500  48.7500 Du        
   4353 ****       189.2500   9.2500  49.0000 Du        
   4354 ****       189.2500   9.2500  49.2500 Du        
   4355 ****       189.2500   9.2500  49.5000 Du        
   4356 ****       189.2500   9.2500  49.7500 Du        
   4357 ****       189.2500   9.2500  50.0000 Du        
   4358 ****       189.2500   9.2500  50.2500 Du        
   4359 ****       189.2500   9.2500  50.5000 Du        
   4360 ****       189.2500   9.5000  48.7500 Du        
   4361 ****       189.2500   9.5000  49.0000 Du        
   4362 ****       189.2500   9.5000  49.2500 Du        
   4363 ****       189.2500   9.5000  49.5000 Du        
   4364 ****       189.2500   9.5000  49.7500 Du        
   4365 ****       189.2500   9.5000  50.0000 Du        
   4366 ****       189.2500   9.5000  50.2500 Du        
   4367 ****       189.2500   9.5000  50.5000 Du        
   4368 ****       189.2500   9.5000  50.7500 Du        
   4369 ****       189.2500   9.5000  51.0000 Du        
   4370 ****       189.2500   9.7500  48.7500 Du        
   4371 ****       189.2500   9.7500  49.0000 Du        
   4372 ****       189.2500   9.7500  49.2500 Du        
   4373 ****       189.2500   9.7500  49.5000 Du        
   4374 ****       189.2500   9.7500  49.7500 Du        
   4375 ****       189.2500   9.7500  50.0000 Du        
   4376 ****       189.2500   9.7500  50.2500 Du        
   4377 ****       189.2500   9.7500  50.5000 Du        
   4378 ****       189.2500   9.7500  50.7500 Du        
   4379 ****       189.2500   9.7500  51.0000 Du        
   4380 ****       189.2500   9.7500  51.2500 Du        
   4381 ****       189.2500  10.0000  48.7500 Du        
   4382 ****       189.2500  10.0000  49.0000 Du        
   4383 ****       189.2500  10.0000  49.2500 Du        
   4384 ****       189.2500  10.0000  49.5000 Du        
   4385 ****       189.2500  10.0000  49.7500 Du        
   4386 ****       189.2500  10.0000  50.0000 Du        
   4387 ****       189.2500  10.0000  50.2500 Du        
   4388 ****       189.2500  10.0000  50.5000 Du        
   4389 ****       189.2500  10.0000  50.7500 Du        
   4390 ****       189.2500  10.0000  51.0000 Du        
   4391 ****       189.2500  10.0000  51.2500 Du        
   4392 ****       189.2500  10.2500  48.7500 Du        
   4393 ****       189.2500  10.2500  49.0000 Du        
   4394 ****       189.2500  10.2500  49.2500 Du        
   4395 ****       189.2500  10.2500  49.5000 Du        
   4396 ****       189.2500  10.2500  49.7500 Du        
   4397 ****       189.2500  10.2500  50.0000 Du        
   4398 ****       189.2500  10.2500  50.2500 Du        
   4399 ****       189.2500  10.2500  50.5000 Du        
   4400 ****       189.2500  10.2500  50.7500 Du        
   4401 ****       189.2500  10.2500  51.0000 Du        
   4402 ****       189.2500  10.2500  51.2500 Du        
   4403 ****       189.2500  10.2500  51.5000 Du        
   4404 ****       189.2500  10.5000  48.7500 Du        
   4405 ****       189.2500  10.5000  49.0000 Du        
   4406 ****       189.2500  10.5000  49.2500 Du        
   4407 ****       189.2500  10.5000  49.5000 Du        
   4408 ****       189.2500  10.5000  49.7500 Du        
   4409 ****       189.2500  10.5000  50.0000 Du        
   4410 ****       189.2500  10.5000  50.2500 Du        
   4411 ****       189.2500  10.5000  50.5000 Du        
   4412 ****       189.2500  10.5000  50.7500 Du        
   4413 ****       189.2500  10.5000  51.0000 Du        
   4414 ****       189.2500  10.5000  51.2500 Du        
   4415 ****       189.2500  10.5000  51.5000 Du        
   4416 ****       189.2500  10.7500  48.7500 Du        
   4417 ****       189.2500  10.7500  49.0000 Du        
   4418 ****       189.2500  10.7500  49.2500 Du        
   4419 ****       189.2500  10.7500  49.5000 Du        
   4420 ****       189.2500  10.7500  49.7500 Du        
   4421 ****       189.2500  10.7500  50.0000 Du        
   4422 ****       189.2500  10.7500  50.2500 Du        
   4423 ****       189.2500  10.7500  50.5000 Du        
   4424 ****       189.2500  10.7500  50.7500 Du        
   4425 ****       189.2500  10.7500  51.0000 Du        
   4426 ****       189.2500  10.7500  51.2500 Du        
   4427 ****       189.2500  10.7500  51.5000 Du        
   4428 ****       189.2500  10.7500  51.7500 Du        
   4429 ****       189.2500  11.0000  48.5000 Du        
   4430 ****       189.2500  11.0000  48.7500 Du        
   4431 ****       189.2500  11.0000  49.0000 Du        
   4432 ****       189.2500  11.0000  49.2500 Du        
   4433 ****       189.2500  11.0000  49.5000 Du        
   4434 ****       189.2500  11.0000  49.7500 Du        
   4435 ****       189.2500  11.0000  50.0000 Du        
   4436 ****       189.2500  11.0000  50.2500 Du        
   4437 ****       189.2500  11.0000  50.5000 Du        
   4438 ****       189.2500  11.0000  50.7500 Du        
   4439 ****       189.2500  11.0000  51.0000 Du        
   4440 ****       189.2500  11.0000  51.2500 Du        
   4441 ****       189.2500  11.0000  51.5000 Du        
   4442 ****       189.2500  11.0000  51.7500 Du        
   4443 ****       189.2500  11.2500  48.5000 Du        
   4444 ****       189.2500  11.2500  48.7500 Du        
   4445 ****       189.2500  11.2500  49.0000 Du        
   4446 ****       189.2500  11.2500  49.2500 Du        
   4447 ****       189.2500  11.2500  49.5000 Du        
   4448 ****       189.2500  11.2500  49.7500 Du        
   4449 ****       189.2500  11.2500  50.0000 Du        
   4450 ****       189.2500  11.2500  50.2500 Du        
   4451 ****       189.2500  11.2500  50.5000 Du        
   4452 ****       189.2500  11.2500  50.7500 Du        
   4453 ****       189.2500  11.2500  51.0000 Du        
   4454 ****       189.2500  11.2500  51.2500 Du        
   4455 ****       189.2500  11.2500  51.5000 Du        
   4456 ****       189.2500  11.5000  48.5000 Du        
   4457 ****       189.2500  11.5000  48.7500 Du        
   4458 ****       189.2500  11.5000  49.0000 Du        
   4459 ****       189.2500  11.5000  49.2500 Du        
   4460 ****       189.2500  11.5000  49.5000 Du        
   4461 ****       189.2500  11.5000  49.7500 Du        
   4462 ****       189.2500  11.5000  50.0000 Du        
   4463 ****       189.2500  11.5000  50.2500 Du        
   4464 ****       189.2500  11.5000  50.5000 Du        
   4465 ****       189.2500  11.5000  50.7500 Du        
   4466 ****       189.2500  11.5000  51.0000 Du        
   4467 ****       189.2500  11.5000  51.2500 Du        
   4468 ****       189.2500  11.5000  51.5000 Du        
   4469 ****       189.2500  11.7500  48.5000 Du        
   4470 ****       189.2500  11.7500  48.7500 Du        
   4471 ****       189.2500  11.7500  49.0000 Du        
   4472 ****       189.2500  11.7500  49.2500 Du        
   4473 ****       189.2500  11.7500  49.5000 Du        
   4474 ****       189.2500  11.7500  49.7500 Du        
   4475 ****       189.2500  11.7500  50.0000 Du        
   4476 ****       189.2500  11.7500  50.2500 Du        
   4477 ****       189.2500  11.7500  50.5000 Du        
   4478 ****       189.2500  11.7500  50.7500 Du        
   4479 ****       189.2500  11.7500  51.0000 Du        
   4480 ****       189.2500  11.7500  51.2500 Du        
   4481 ****       189.2500  12.0000  48.7500 Du        
   4482 ****       189.2500  12.0000  49.0000 Du        
   4483 ****       189.2500  12.0000  49.2500 Du        
   4484 ****       189.2500  12.0000  49.5000 Du        
   4485 ****       189.2500  12.0000  49.7500 Du        
   4486 ****       189.2500  12.0000  50.0000 Du        
   4487 ****       189.2500  12.0000  50.2500 Du        
   4488 ****       189.2500  12.0000  50.5000 Du        
   4489 ****       189.2500  12.0000  50.7500 Du        
   4490 ****       189.2500  12.0000  51.0000 Du        
   4491 ****       189.2500  12.2500  48.7500 Du        
   4492 ****       189.2500  12.2500  49.0000 Du        
   4493 ****       189.2500  12.2500  49.2500 Du        
   4494 ****       189.2500  12.2500  49.5000 Du        
   4495 ****       189.2500  12.2500  49.7500 Du        
   4496 ****       189.2500  12.2500  50.0000 Du        
   4497 ****       189.2500  12.2500  50.2500 Du        
   4498 ****       189.2500  12.2500  50.5000 Du        
   4499 ****       189.2500  12.2500  50.7500 Du        
   4500 ****       189.2500  12.5000  48.7500 Du        
   4501 ****       189.2500  12.5000  49.0000 Du        
   4502 ****       189.2500  12.5000  49.2500 Du        
   4503 ****       189.2500  12.5000  49.5000 Du        
   4504 ****       189.2500  12.5000  49.7500 Du        
   4505 ****       189.2500  12.5000  50.0000 Du        
   4506 ****       189.2500  12.5000  50.2500 Du        
   4507 ****       189.2500  12.7500  49.0000 Du        
   4508 ****       189.2500  12.7500  49.2500 Du        
   4509 ****       189.2500  12.7500  49.5000 Du        
   4510 ****       189.2500  12.7500  49.7500 Du        
   4511 ****       189.2500  13.0000  49.0000 Du        
   4512 ****       189.2500  13.0000  49.2500 Du        
   4513 ****       189.2500  17.7500  44.2500 Du        
   4514 ****       189.2500  18.0000  44.0000 Du        
   4515 ****       189.2500  18.0000  44.2500 Du        
   4516 ****       189.2500  18.2500  44.0000 Du        
   4517 ****       189.2500  18.2500  44.2500 Du        
   4518 ****       189.2500  18.7500  43.0000 Du        
   4519 ****       189.2500  18.7500  43.2500 Du        
   4520 ****       189.2500  19.0000  42.2500 Du        
   4521 ****       189.2500  19.0000  42.7500 Du        
   4522 ****       189.2500  19.0000  43.0000 Du        
   4523 ****       189.2500  19.0000  43.2500 Du        
   4524 ****       189.2500  19.2500  42.0000 Du        
   4525 ****       189.2500  19.2500  42.2500 Du        
   4526 ****       189.2500  19.2500  42.5000 Du        
   4527 ****       189.2500  19.2500  43.0000 Du        
   4528 ****       189.5000   9.0000  49.2500 Du        
   4529 ****       189.5000   9.0000  49.5000 Du        
   4530 ****       189.5000   9.2500  49.0000 Du        
   4531 ****       189.5000   9.2500  49.2500 Du        
   4532 ****       189.5000   9.2500  49.5000 Du        
   4533 ****       189.5000   9.2500  49.7500 Du        
   4534 ****       189.5000   9.2500  50.0000 Du        
   4535 ****       189.5000   9.2500  50.2500 Du        
   4536 ****       189.5000   9.5000  49.0000 Du        
   4537 ****       189.5000   9.5000  49.2500 Du        
   4538 ****       189.5000   9.5000  49.5000 Du        
   4539 ****       189.5000   9.5000  49.7500 Du        
   4540 ****       189.5000   9.5000  50.0000 Du        
   4541 ****       189.5000   9.5000  50.2500 Du        
   4542 ****       189.5000   9.5000  50.5000 Du        
   4543 ****       189.5000   9.7500  49.0000 Du        
   4544 ****       189.5000   9.7500  49.2500 Du        
   4545 ****       189.5000   9.7500  49.5000 Du        
   4546 ****       189.5000   9.7500  49.7500 Du        
   4547 ****       189.5000   9.7500  50.0000 Du        
   4548 ****       189.5000   9.7500  50.2500 Du        
   4549 ****       189.5000   9.7500  50.5000 Du        
   4550 ****       189.5000   9.7500  50.7500 Du        
   4551 ****       189.5000  10.0000  49.0000 Du        
   4552 ****       189.5000  10.0000  49.2500 Du        
   4553 ****       189.5000  10.0000  49.5000 Du        
   4554 ****       189.5000  10.0000  49.7500 Du        
   4555 ****       189.5000  10.0000  50.0000 Du        
   4556 ****       189.5000  10.0000  50.2500 Du        
   4557 ****       189.5000  10.0000  50.5000 Du        
   4558 ****       189.5000  10.0000  50.7500 Du        
   4559 ****       189.5000  10.0000  51.0000 Du        
   4560 ****       189.5000  10.2500  49.0000 Du        
   4561 ****       189.5000  10.2500  49.2500 Du        
   4562 ****       189.5000  10.2500  49.5000 Du        
   4563 ****       189.5000  10.2500  49.7500 Du        
   4564 ****       189.5000  10.2500  50.0000 Du        
   4565 ****       189.5000  10.2500  50.2500 Du        
   4566 ****       189.5000  10.2500  50.5000 Du        
   4567 ****       189.5000  10.2500  50.7500 Du        
   4568 ****       189.5000  10.2500  51.0000 Du        
   4569 ****       189.5000  10.5000  48.7500 Du        
   4570 ****       189.5000  10.5000  49.0000 Du        
   4571 ****       189.5000  10.5000  49.2500 Du        
   4572 ****       189.5000  10.5000  49.5000 Du        
   4573 ****       189.5000  10.5000  49.7500 Du        
   4574 ****       189.5000  10.5000  50.0000 Du        
   4575 ****       189.5000  10.5000  50.2500 Du        
   4576 ****       189.5000  10.5000  50.5000 Du        
   4577 ****       189.5000  10.5000  50.7500 Du        
   4578 ****       189.5000  10.5000  51.0000 Du        
   4579 ****       189.5000  10.7500  48.7500 Du        
   4580 ****       189.5000  10.7500  49.0000 Du        
   4581 ****       189.5000  10.7500  49.2500 Du        
   4582 ****       189.5000  10.7500  49.5000 Du        
   4583 ****       189.5000  10.7500  49.7500 Du        
   4584 ****       189.5000  10.7500  50.0000 Du        
   4585 ****       189.5000  10.7500  50.2500 Du        
   4586 ****       189.5000  10.7500  50.5000 Du        
   4587 ****       189.5000  10.7500  50.7500 Du        
   4588 ****       189.5000  10.7500  51.0000 Du        
   4589 ****       189.5000  10.7500  51.2500 Du        
   4590 ****       189.5000  11.0000  48.7500 Du        
   4591 ****       189.5000  11.0000  49.0000 Du        
   4592 ****       189.5000  11.0000  49.2500 Du        
   4593 ****       189.5000  11.0000  49.5000 Du        
   4594 ****       189.5000  11.0000  49.7500 Du        
   4595 ****       189.5000  11.0000  50.0000 Du        
   4596 ****       189.5000  11.0000  50.2500 Du        
   4597 ****       189.5000  11.0000  50.5000 Du        
   4598 ****       189.5000  11.0000  50.7500 Du        
   4599 ****       189.5000  11.0000  51.0000 Du        
   4600 ****       189.5000  11.2500  48.5000 Du        
   4601 ****       189.5000  11.2500  48.7500 Du        
   4602 ****       189.5000  11.2500  49.0000 Du        
   4603 ****       189.5000  11.2500  49.2500 Du        
   4604 ****       189.5000  11.2500  49.5000 Du        
   4605 ****       189.5000  11.2500  49.7500 Du        
   4606 ****       189.5000  11.2500  50.0000 Du        
   4607 ****       189.5000  11.2500  50.2500 Du        
   4608 ****       189.5000  11.2500  50.5000 Du        
   4609 ****       189.5000  11.2500  50.7500 Du        
   4610 ****       189.5000  11.2500  51.0000 Du        
   4611 ****       189.5000  11.5000  48.5000 Du        
   4612 ****       189.5000  11.5000  48.7500 Du        
   4613 ****       189.5000  11.5000  49.0000 Du        
   4614 ****       189.5000  11.5000  49.2500 Du        
   4615 ****       189.5000  11.5000  49.5000 Du        
   4616 ****       189.5000  11.5000  49.7500 Du        
   4617 ****       189.5000  11.5000  50.0000 Du        
   4618 ****       189.5000  11.5000  50.2500 Du        
   4619 ****       189.5000  11.5000  50.5000 Du        
   4620 ****       189.5000  11.5000  50.7500 Du        
   4621 ****       189.5000  11.5000  51.0000 Du        
   4622 ****       189.5000  11.7500  48.5000 Du        
   4623 ****       189.5000  11.7500  48.7500 Du        
   4624 ****       189.5000  11.7500  49.0000 Du        
   4625 ****       189.5000  11.7500  49.2500 Du        
   4626 ****       189.5000  11.7500  49.5000 Du        
   4627 ****       189.5000  11.7500  49.7500 Du        
   4628 ****       189.5000  11.7500  50.0000 Du        
   4629 ****       189.5000  11.7500  50.2500 Du        
   4630 ****       189.5000  11.7500  50.5000 Du        
   4631 ****       189.5000  11.7500  50.7500 Du        
   4632 ****       189.5000  12.0000  48.5000 Du        
   4633 ****       189.5000  12.0000  48.7500 Du        
   4634 ****       189.5000  12.0000  49.0000 Du        
   4635 ****       189.5000  12.0000  49.2500 Du        
   4636 ****       189.5000  12.0000  49.5000 Du        
   4637 ****       189.5000  12.0000  49.7500 Du        
   4638 ****       189.5000  12.0000  50.0000 Du        
   4639 ****       189.5000  12.0000  50.2500 Du        
   4640 ****       189.5000  12.0000  50.5000 Du        
   4641 ****       189.5000  12.2500  48.7500 Du        
   4642 ****       189.5000  12.2500  49.0000 Du        
   4643 ****       189.5000  12.2500  49.2500 Du        
   4644 ****       189.5000  12.2500  49.5000 Du        
   4645 ****       189.5000  12.2500  49.7500 Du        
   4646 ****       189.5000  12.2500  50.0000 Du        
   4647 ****       189.5000  12.2500  50.2500 Du        
   4648 ****       189.5000  12.5000  48.7500 Du        
   4649 ****       189.5000  12.5000  49.0000 Du        
   4650 ****       189.5000  12.5000  49.2500 Du        
   4651 ****       189.5000  12.5000  49.5000 Du        
   4652 ****       189.5000  12.5000  49.7500 Du        
   4653 ****       189.5000  12.7500  48.7500 Du        
   4654 ****       189.5000  12.7500  49.0000 Du        
   4655 ****       189.5000  12.7500  49.2500 Du        
   4656 ****       189.5000  12.7500  49.5000 Du        
   4657 ****       189.5000  13.0000  49.0000 Du        
   4658 ****       189.5000  17.5000  56.0000 Du        
   4659 ****       189.5000  17.7500  55.0000 Du        
   4660 ****       189.5000  17.7500  55.2500 Du        
   4661 ****       189.5000  17.7500  55.5000 Du        
   4662 ****       189.5000  17.7500  55.7500 Du        
   4663 ****       189.5000  17.7500  56.0000 Du        
   4664 ****       189.5000  17.7500  56.2500 Du        
   4665 ****       189.5000  18.0000  54.7500 Du        
   4666 ****       189.5000  18.0000  55.0000 Du        
   4667 ****       189.5000  18.0000  55.2500 Du        
   4668 ****       189.5000  18.0000  55.5000 Du        
   4669 ****       189.5000  18.0000  55.7500 Du        
   4670 ****       189.5000  18.0000  56.0000 Du        
   4671 ****       189.5000  18.2500  54.7500 Du        
   4672 ****       189.5000  18.2500  55.0000 Du        
   4673 ****       189.5000  18.2500  55.2500 Du        
   4674 ****       189.5000  18.2500  55.5000 Du        
   4675 ****       189.5000  18.2500  55.7500 Du        
   4676 ****       189.5000  18.7500  42.2500 Du        
   4677 ****       189.5000  18.7500  42.7500 Du        
   4678 ****       189.5000  18.7500  43.2500 Du        
   4679 ****       189.5000  19.0000  41.5000 Du        
   4680 ****       189.5000  19.0000  41.7500 Du        
   4681 ****       189.5000  19.0000  42.0000 Du        
   4682 ****       189.5000  19.0000  42.2500 Du        
   4683 ****       189.5000  19.0000  42.7500 Du        
   4684 ****       189.5000  19.0000  43.0000 Du        
   4685 ****       189.5000  19.0000  43.2500 Du        
   4686 ****       189.5000  19.2500  42.0000 Du        
   4687 ****       189.5000  19.2500  42.2500 Du        
   4688 ****       189.5000  19.2500  42.5000 Du        
   4689 ****       189.5000  19.2500  42.7500 Du        
   4690 ****       189.7500   9.5000  49.2500 Du        
   4691 ****       189.7500   9.5000  49.5000 Du        
   4692 ****       189.7500   9.5000  49.7500 Du        
   4693 ****       189.7500   9.5000  50.0000 Du        
   4694 ****       189.7500   9.7500  49.0000 Du        
   4695 ****       189.7500   9.7500  49.2500 Du        
   4696 ****       189.7500   9.7500  49.5000 Du        
   4697 ****       189.7500   9.7500  49.7500 Du        
   4698 ****       189.7500   9.7500  50.0000 Du        
   4699 ****       189.7500   9.7500  50.2500 Du        
   4700 ****       189.7500  10.0000  49.0000 Du        
   4701 ****       189.7500  10.0000  49.2500 Du        
   4702 ****       189.7500  10.0000  49.5000 Du        
   4703 ****       189.7500  10.0000  49.7500 Du        
   4704 ****       189.7500  10.0000  50.0000 Du        
   4705 ****       189.7500  10.0000  50.2500 Du        
   4706 ****       189.7500  10.0000  50.5000 Du        
   4707 ****       189.7500  10.2500  49.0000 Du        
   4708 ****       189.7500  10.2500  49.2500 Du        
   4709 ****       189.7500  10.2500  49.5000 Du        
   4710 ****       189.7500  10.2500  49.7500 Du        
   4711 ****       189.7500  10.2500  50.0000 Du        
   4712 ****       189.7500  10.2500  50.2500 Du        
   4713 ****       189.7500  10.2500  50.5000 Du        
   4714 ****       189.7500  10.2500  50.7500 Du        
   4715 ****       189.7500  10.5000  49.0000 Du        
   4716 ****       189.7500  10.5000  49.2500 Du        
   4717 ****       189.7500  10.5000  49.5000 Du        
   4718 ****       189.7500  10.5000  49.7500 Du        
   4719 ****       189.7500  10.5000  50.0000 Du        
   4720 ****       189.7500  10.5000  50.2500 Du        
   4721 ****       189.7500  10.5000  50.5000 Du        
   4722 ****       189.7500  10.5000  50.7500 Du        
   4723 ****       189.7500  10.7500  48.7500 Du        
   4724 ****       189.7500  10.7500  49.0000 Du        
   4725 ****       189.7500  10.7500  49.2500 Du        
   4726 ****       189.7500  10.7500  49.5000 Du        
   4727 ****       189.7500  10.7500  49.7500 Du        
   4728 ****       189.7500  10.7500  50.0000 Du        
   4729 ****       189.7500  10.7500  50.2500 Du        
   4730 ****       189.7500  10.7500  50.5000 Du        
   4731 ****       189.7500  10.7500  50.7500 Du        
   4732 ****       189.7500  11.0000  48.7500 Du        
   4733 ****       189.7500  11.0000  49.0000 Du        
   4734 ****       189.7500  11.0000  49.2500 Du        
   4735 ****       189.7500  11.0000  49.5000 Du        
   4736 ****       189.7500  11.0000  49.7500 Du        
   4737 ****       189.7500  11.0000  50.0000 Du        
   4738 ****       189.7500  11.0000  50.2500 Du        
   4739 ****       189.7500  11.0000  50.5000 Du        
   4740 ****       189.7500  11.0000  50.7500 Du        
   4741 ****       189.7500  11.2500  48.7500 Du        
   4742 ****       189.7500  11.2500  49.0000 Du        
   4743 ****       189.7500  11.2500  49.2500 Du        
   4744 ****       189.7500  11.2500  49.5000 Du        
   4745 ****       189.7500  11.2500  49.7500 Du        
   4746 ****       189.7500  11.2500  50.0000 Du        
   4747 ****       189.7500  11.2500  50.2500 Du        
   4748 ****       189.7500  11.2500  50.5000 Du        
   4749 ****       189.7500  11.5000  48.5000 Du        
   4750 ****       189.7500  11.5000  48.7500 Du        
   4751 ****       189.7500  11.5000  49.0000 Du        
   4752 ****       189.7500  11.5000  49.2500 Du        
   4753 ****       189.7500  11.5000  49.5000 Du        
   4754 ****       189.7500  11.5000  49.7500 Du        
   4755 ****       189.7500  11.5000  50.0000 Du        
   4756 ****       189.7500  11.5000  50.2500 Du        
   4757 ****       189.7500  11.5000  50.5000 Du        
   4758 ****       189.7500  11.7500  48.5000 Du        
   4759 ****       189.7500  11.7500  48.7500 Du        
   4760 ****       189.7500  11.7500  49.0000 Du        
   4761 ****       189.7500  11.7500  49.2500 Du        
   4762 ****       189.7500  11.7500  49.5000 Du        
   4763 ****       189.7500  11.7500  49.7500 Du        
   4764 ****       189.7500  11.7500  50.0000 Du        
   4765 ****       189.7500  11.7500  50.2500 Du        
   4766 ****       189.7500  12.0000  48.5000 Du        
   4767 ****       189.7500  12.0000  48.7500 Du        
   4768 ****       189.7500  12.0000  49.0000 Du        
   4769 ****       189.7500  12.0000  49.2500 Du        
   4770 ****       189.7500  12.0000  49.5000 Du        
   4771 ****       189.7500  12.0000  49.7500 Du        
   4772 ****       189.7500  12.0000  50.0000 Du        
   4773 ****       189.7500  12.2500  48.5000 Du        
   4774 ****       189.7500  12.2500  48.7500 Du        
   4775 ****       189.7500  12.2500  49.0000 Du        
   4776 ****       189.7500  12.2500  49.2500 Du        
   4777 ****       189.7500  12.2500  49.5000 Du        
   4778 ****       189.7500  12.2500  49.7500 Du        
   4779 ****       189.7500  12.5000  48.7500 Du        
   4780 ****       189.7500  12.5000  49.0000 Du        
   4781 ****       189.7500  12.5000  49.2500 Du        
   4782 ****       189.7500  12.5000  49.5000 Du        
   4783 ****       189.7500  12.7500  48.7500 Du        
   4784 ****       189.7500  12.7500  49.0000 Du        
   4785 ****       189.7500  12.7500  49.2500 Du        
   4786 ****       189.7500  17.2500  56.0000 Du        
   4787 ****       189.7500  17.2500  56.2500 Du        
   4788 ****       189.7500  17.5000  55.2500 Du        
   4789 ****       189.7500  17.5000  55.5000 Du        
   4790 ****       189.7500  17.5000  55.7500 Du        
   4791 ****       189.7500  17.5000  56.0000 Du        
   4792 ****       189.7500  17.5000  56.2500 Du        
   4793 ****       189.7500  17.7500  55.0000 Du        
   4794 ****       189.7500  17.7500  55.2500 Du        
   4795 ****       189.7500  17.7500  55.5000 Du        
   4796 ****       189.7500  17.7500  55.7500 Du        
   4797 ****       189.7500  17.7500  56.0000 Du        
   4798 ****       189.7500  17.7500  56.2500 Du        
   4799 ****       189.7500  18.0000  54.7500 Du        
   4800 ****       189.7500  18.0000  55.0000 Du        
   4801 ****       189.7500  18.0000  55.2500 Du        
   4802 ****       189.7500  18.0000  55.5000 Du        
   4803 ****       189.7500  18.0000  55.7500 Du        
   4804 ****       189.7500  18.0000  56.0000 Du        
   4805 ****       189.7500  18.2500  54.7500 Du        
   4806 ****       189.7500  18.2500  55.0000 Du        
   4807 ****       189.7500  18.2500  55.2500 Du        
   4808 ****       189.7500  18.2500  55.5000 Du        
   4809 ****       189.7500  18.2500  55.7500 Du        
   4810 ****       189.7500  18.5000  55.0000 Du        
   4811 ****       189.7500  18.5000  55.2500 Du        
   4812 ****       189.7500  18.5000  55.5000 Du        
   4813 ****       189.7500  19.0000  42.0000 Du        
   4814 ****       189.7500  19.0000  42.2500 Du        
   4815 ****       189.7500  19.2500  42.0000 Du        
   4816 ****       189.7500  19.2500  42.2500 Du        
   4817 ****       189.7500  19.2500  44.5000 Du        
   4818 ****       190.0000   9.7500  49.5000 Du        
   4819 ****       190.0000   9.7500  49.7500 Du        
   4820 ****       190.0000   9.7500  50.0000 Du        
   4821 ****       190.0000  10.0000  49.2500 Du        
   4822 ****       190.0000  10.0000  49.5000 Du        
   4823 ****       190.0000  10.0000  49.7500 Du        
   4824 ****       190.0000  10.0000  50.0000 Du        
   4825 ****       190.0000  10.0000  50.2500 Du        
   4826 ****       190.0000  10.2500  49.2500 Du        
   4827 ****       190.0000  10.2500  49.5000 Du        
   4828 ****       190.0000  10.2500  49.7500 Du        
   4829 ****       190.0000  10.2500  50.0000 Du        
   4830 ****       190.0000  10.2500  50.2500 Du        
   4831 ****       190.0000  10.5000  49.0000 Du        
   4832 ****       190.0000  10.5000  49.2500 Du        
   4833 ****       190.0000  10.5000  49.5000 Du        
   4834 ****       190.0000  10.5000  49.7500 Du        
   4835 ****       190.0000  10.5000  50.0000 Du        
   4836 ****       190.0000  10.5000  50.2500 Du        
   4837 ****       190.0000  10.7500  49.0000 Du        
   4838 ****       190.0000  10.7500  49.2500 Du        
   4839 ****       190.0000  10.7500  49.5000 Du        
   4840 ****       190.0000  10.7500  49.7500 Du        
   4841 ****       190.0000  10.7500  50.0000 Du        
   4842 ****       190.0000  10.7500  50.2500 Du        
   4843 ****       190.0000  11.0000  49.0000 Du        
   4844 ****       190.0000  11.0000  49.2500 Du        
   4845 ****       190.0000  11.0000  49.5000 Du        
   4846 ****       190.0000  11.0000  49.7500 Du        
   4847 ****       190.0000  11.0000  50.0000 Du        
   4848 ****       190.0000  11.0000  50.2500 Du        
   4849 ****       190.0000  11.2500  48.7500 Du        
   4850 ****       190.0000  11.2500  49.0000 Du        
   4851 ****       190.0000  11.2500  49.2500 Du        
   4852 ****       190.0000  11.2500  49.5000 Du        
   4853 ****       190.0000  11.2500  49.7500 Du        
   4854 ****       190.0000  11.2500  50.0000 Du        
   4855 ****       190.0000  11.5000  48.7500 Du        
   4856 ****       190.0000  11.5000  49.0000 Du        
   4857 ****       190.0000  11.5000  49.2500 Du        
   4858 ****       190.0000  11.5000  49.5000 Du        
   4859 ****       190.0000  11.5000  49.7500 Du        
   4860 ****       190.0000  11.5000  50.0000 Du        
   4861 ****       190.0000  11.7500  48.5000 Du        
   4862 ****       190.0000  11.7500  48.7500 Du        
   4863 ****       190.0000  11.7500  49.0000 Du        
   4864 ****       190.0000  11.7500  49.2500 Du        
   4865 ****       190.0000  11.7500  49.5000 Du        
   4866 ****       190.0000  11.7500  49.7500 Du        
   4867 ****       190.0000  12.0000  48.5000 Du        
   4868 ****       190.0000  12.0000  48.7500 Du        
   4869 ****       190.0000  12.0000  49.0000 Du        
   4870 ****       190.0000  12.0000  49.2500 Du        
   4871 ****       190.0000  12.0000  49.5000 Du        
   4872 ****       190.0000  12.2500  48.5000 Du        
   4873 ****       190.0000  12.2500  48.7500 Du        
   4874 ****       190.0000  12.2500  49.0000 Du        
   4875 ****       190.0000  12.2500  49.2500 Du        
   4876 ****       190.0000  12.5000  48.7500 Du        
   4877 ****       190.0000  16.7500  56.2500 Du        
   4878 ****       190.0000  17.0000  55.7500 Du        
   4879 ****       190.0000  17.0000  56.0000 Du        
   4880 ****       190.0000  17.0000  56.2500 Du        
   4881 ****       190.0000  17.2500  55.2500 Du        
   4882 ****       190.0000  17.2500  55.5000 Du        
   4883 ****       190.0000  17.2500  55.7500 Du        
   4884 ****       190.0000  17.2500  56.0000 Du        
   4885 ****       190.0000  17.2500  56.2500 Du        
   4886 ****       190.0000  17.5000  55.0000 Du        
   4887 ****       190.0000  17.5000  55.2500 Du        
   4888 ****       190.0000  17.5000  55.5000 Du        
   4889 ****       190.0000  17.5000  55.7500 Du        
   4890 ****       190.0000  17.5000  56.0000 Du        
   4891 ****       190.0000  17.5000  56.2500 Du        
   4892 ****       190.0000  17.7500  55.0000 Du        
   4893 ****       190.0000  17.7500  55.2500 Du        
   4894 ****       190.0000  17.7500  55.5000 Du        
   4895 ****       190.0000  17.7500  55.7500 Du        
   4896 ****       190.0000  17.7500  56.0000 Du        
   4897 ****       190.0000  17.7500  56.2500 Du        
   4898 ****       190.0000  18.0000  55.0000 Du        
   4899 ****       190.0000  18.0000  55.2500 Du        
   4900 ****       190.0000  18.0000  55.5000 Du        
   4901 ****       190.0000  18.0000  55.7500 Du        
   4902 ****       190.0000  18.0000  56.0000 Du        
   4903 ****       190.0000  18.2500  54.7500 Du        
   4904 ****       190.0000  18.2500  55.0000 Du        
   4905 ****       190.0000  18.2500  55.2500 Du        
   4906 ****       190.0000  18.2500  55.5000 Du        
   4907 ****       190.0000  18.2500  55.7500 Du        
   4908 ****       190.0000  18.5000  54.7500 Du        
   4909 ****       190.0000  18.5000  55.0000 Du        
   4910 ****       190.0000  18.5000  55.2500 Du        
   4911 ****       190.0000  18.5000  55.5000 Du        
   4912 ****       190.0000  18.5000  55.7500 Du        
   4913 ****       190.0000  18.7500  55.0000 Du        
   4914 ****       190.0000  18.7500  55.2500 Du        
   4915 ****       190.0000  20.0000  43.7500 Du        
   4916 ****       190.0000  20.0000  44.7500 Du        
   4917 ****       190.0000  20.0000  45.0000 Du        
   4918 ****       190.0000  20.2500  43.7500 Du        
   4919 ****       190.0000  20.2500  45.0000 Du        
   4920 ****       190.0000  21.0000  45.0000 Du        
   4921 ****       190.0000  21.2500  45.2500 Du        
   4922 ****       190.0000  21.5000  45.0000 Du        
   4923 ****       190.0000  21.5000  45.2500 Du        
   4924 ****       190.0000  21.7500  44.7500 Du        
   4925 ****       190.0000  21.7500  45.0000 Du        
   4926 ****       190.0000  21.7500  45.2500 Du        
   4927 ****       190.0000  22.0000  44.7500 Du        
   4928 ****       190.0000  22.0000  45.0000 Du        
   4929 ****       190.0000  22.0000  45.2500 Du        
   4930 ****       190.0000  22.0000  45.5000 Du        
   4931 ****       190.0000  22.0000  45.7500 Du        
   4932 ****       190.0000  22.2500  45.5000 Du        
   4933 ****       190.0000  22.5000  45.5000 Du        
   4934 ****       190.2500  10.2500  49.5000 Du        
   4935 ****       190.2500  10.2500  49.7500 Du        
   4936 ****       190.2500  10.2500  50.0000 Du        
   4937 ****       190.2500  10.5000  49.5000 Du        
   4938 ****       190.2500  10.5000  49.7500 Du        
   4939 ****       190.2500  10.5000  50.0000 Du        
   4940 ****       190.2500  10.7500  49.5000 Du        
   4941 ****       190.2500  10.7500  49.7500 Du        
   4942 ****       190.2500  16.5000  56.2500 Du        
   4943 ****       190.2500  16.7500  55.7500 Du        
   4944 ****       190.2500  16.7500  56.0000 Du        
   4945 ****       190.2500  16.7500  56.2500 Du        
   4946 ****       190.2500  17.0000  55.2500 Du        
   4947 ****       190.2500  17.0000  55.5000 Du        
   4948 ****       190.2500  17.0000  55.7500 Du        
   4949 ****       190.2500  17.0000  56.0000 Du        
   4950 ****       190.2500  17.0000  56.2500 Du        
   4951 ****       190.2500  17.2500  55.2500 Du        
   4952 ****       190.2500  17.2500  55.5000 Du        
   4953 ****       190.2500  17.2500  55.7500 Du        
   4954 ****       190.2500  17.2500  56.0000 Du        
   4955 ****       190.2500  17.2500  56.2500 Du        
   4956 ****       190.2500  17.5000  55.0000 Du        
   4957 ****       190.2500  17.5000  55.2500 Du        
   4958 ****       190.2500  17.5000  55.5000 Du        
   4959 ****       190.2500  17.5000  55.7500 Du        
   4960 ****       190.2500  17.5000  56.0000 Du        
   4961 ****       190.2500  17.5000  56.2500 Du        
   4962 ****       190.2500  17.7500  55.0000 Du        
   4963 ****       190.2500  17.7500  55.2500 Du        
   4964 ****       190.2500  17.7500  55.5000 Du        
   4965 ****       190.2500  17.7500  55.7500 Du        
   4966 ****       190.2500  17.7500  56.0000 Du        
   4967 ****       190.2500  17.7500  56.2500 Du        
   4968 ****       190.2500  18.0000  55.0000 Du        
   4969 ****       190.2500  18.0000  55.2500 Du        
   4970 ****       190.2500  18.0000  55.5000 Du        
   4971 ****       190.2500  18.0000  55.7500 Du        
   4972 ****       190.2500  18.0000  56.0000 Du        
   4973 ****       190.2500  18.2500  55.0000 Du        
   4974 ****       190.2500  18.2500  55.2500 Du        
   4975 ****       190.2500  18.2500  55.5000 Du        
   4976 ****       190.2500  18.2500  55.7500 Du        
   4977 ****       190.2500  18.5000  55.0000 Du        
   4978 ****       190.2500  18.5000  55.2500 Du        
   4979 ****       190.2500  18.5000  55.5000 Du        
   4980 ****       190.2500  18.5000  55.7500 Du        
   4981 ****       190.2500  18.7500  55.0000 Du        
   4982 ****       190.2500  18.7500  55.2500 Du        
   4983 ****       190.2500  18.7500  55.5000 Du        
   4984 ****       190.2500  19.7500  45.0000 Du        
   4985 ****       190.2500  20.0000  44.5000 Du        
   4986 ****       190.2500  20.0000  44.7500 Du        
   4987 ****       190.2500  20.0000  45.0000 Du        
   4988 ****       190.2500  20.0000  45.2500 Du        
   4989 ****       190.2500  20.0000  45.5000 Du        
   4990 ****       190.2500  20.2500  43.5000 Du        
   4991 ****       190.2500  20.2500  43.7500 Du        
   4992 ****       190.2500  20.2500  44.0000 Du        
   4993 ****       190.2500  20.2500  44.2500 Du        
   4994 ****       190.2500  20.2500  44.5000 Du        
   4995 ****       190.2500  20.2500  44.7500 Du        
   4996 ****       190.2500  20.2500  45.0000 Du        
   4997 ****       190.2500  20.2500  45.2500 Du        
   4998 ****       190.2500  20.2500  45.5000 Du        
   4999 ****       190.2500  20.5000  44.0000 Du        
   5000 ****       190.2500  20.5000  44.2500 Du        
   5001 ****       190.2500  20.5000  44.5000 Du        
   5002 ****       190.2500  20.5000  44.7500 Du        
   5003 ****       190.2500  20.5000  45.0000 Du        
   5004 ****       190.2500  20.5000  45.2500 Du        
   5005 ****       190.2500  20.5000  45.5000 Du        
   5006 ****       190.2500  20.7500  44.0000 Du        
   5007 ****       190.2500  20.7500  44.2500 Du        
   5008 ****       190.2500  20.7500  44.5000 Du        
   5009 ****       190.2500  20.7500  44.7500 Du        
   5010 ****       190.2500  20.7500  45.0000 Du        
   5011 ****       190.2500  20.7500  45.2500 Du        
   5012 ****       190.2500  20.7500  45.5000 Du        
   5013 ****       190.2500  20.7500  45.7500 Du        
   5014 ****       190.2500  20.7500  46.0000 Du        
   5015 ****       190.2500  21.0000  44.5000 Du        
   5016 ****       190.2500  21.0000  44.7500 Du        
   5017 ****       190.2500  21.0000  45.0000 Du        
   5018 ****       190.2500  21.0000  45.2500 Du        
   5019 ****       190.2500  21.0000  45.5000 Du        
   5020 ****       190.2500  21.0000  45.7500 Du        
   5021 ****       190.2500  21.0000  46.0000 Du        
   5022 ****       190.2500  21.2500  44.7500 Du        
   5023 ****       190.2500  21.2500  45.0000 Du        
   5024 ****       190.2500  21.2500  45.2500 Du        
   5025 ****       190.2500  21.2500  45.5000 Du        
   5026 ****       190.2500  21.2500  45.7500 Du        
   5027 ****       190.2500  21.5000  44.7500 Du        
   5028 ****       190.2500  21.5000  45.0000 Du        
   5029 ****       190.2500  21.5000  45.2500 Du        
   5030 ****       190.2500  21.5000  45.5000 Du        
   5031 ****       190.2500  21.7500  45.0000 Du        
   5032 ****       190.2500  21.7500  45.2500 Du        
   5033 ****       190.2500  21.7500  45.5000 Du        
   5034 ****       190.2500  22.0000  45.0000 Du        
   5035 ****       190.2500  22.0000  45.2500 Du        
   5036 ****       190.2500  22.0000  45.5000 Du        
   5037 ****       190.2500  22.0000  45.7500 Du        
   5038 ****       190.5000  16.5000  55.7500 Du        
   5039 ****       190.5000  16.5000  56.0000 Du        
   5040 ****       190.5000  16.5000  56.2500 Du        
   5041 ****       190.5000  16.7500  55.5000 Du        
   5042 ****       190.5000  16.7500  55.7500 Du        
   5043 ****       190.5000  16.7500  56.0000 Du        
   5044 ****       190.5000  16.7500  56.2500 Du        
   5045 ****       190.5000  17.0000  55.2500 Du        
   5046 ****       190.5000  17.0000  55.5000 Du        
   5047 ****       190.5000  17.0000  55.7500 Du        
   5048 ****       190.5000  17.0000  56.0000 Du        
   5049 ****       190.5000  17.0000  56.2500 Du        
   5050 ****       190.5000  17.2500  55.2500 Du        
   5051 ****       190.5000  17.2500  55.5000 Du        
   5052 ****       190.5000  17.2500  55.7500 Du        
   5053 ****       190.5000  17.2500  56.0000 Du        
   5054 ****       190.5000  17.2500  56.2500 Du        
   5055 ****       190.5000  17.5000  55.2500 Du        
   5056 ****       190.5000  17.5000  55.5000 Du        
   5057 ****       190.5000  17.5000  55.7500 Du        
   5058 ****       190.5000  17.5000  56.0000 Du        
   5059 ****       190.5000  17.5000  56.2500 Du        
   5060 ****       190.5000  17.7500  55.0000 Du        
   5061 ****       190.5000  17.7500  55.2500 Du        
   5062 ****       190.5000  17.7500  55.5000 Du        
   5063 ****       190.5000  17.7500  55.7500 Du        
   5064 ****       190.5000  17.7500  56.0000 Du        
   5065 ****       190.5000  18.0000  55.0000 Du        
   5066 ****       190.5000  18.0000  55.2500 Du        
   5067 ****       190.5000  18.0000  55.5000 Du        
   5068 ****       190.5000  18.0000  55.7500 Du        
   5069 ****       190.5000  18.0000  56.0000 Du        
   5070 ****       190.5000  18.2500  55.0000 Du        
   5071 ****       190.5000  18.2500  55.2500 Du        
   5072 ****       190.5000  18.2500  55.5000 Du        
   5073 ****       190.5000  18.2500  55.7500 Du        
   5074 ****       190.5000  18.5000  55.0000 Du        
   5075 ****       190.5000  18.5000  55.2500 Du        
   5076 ****       190.5000  18.5000  55.5000 Du        
   5077 ****       190.5000  18.5000  55.7500 Du        
   5078 ****       190.5000  18.7500  55.0000 Du        
   5079 ****       190.5000  18.7500  55.2500 Du        
   5080 ****       190.5000  18.7500  55.5000 Du        
   5081 ****       190.5000  19.0000  55.2500 Du        
   5082 ****       190.5000  19.7500  45.0000 Du        
   5083 ****       190.5000  19.7500  45.2500 Du        
   5084 ****       190.5000  19.7500  45.5000 Du        
   5085 ****       190.5000  20.0000  44.2500 Du        
   5086 ****       190.5000  20.0000  44.5000 Du        
   5087 ****       190.5000  20.0000  44.7500 Du        
   5088 ****       190.5000  20.0000  45.0000 Du        
   5089 ****       190.5000  20.0000  45.2500 Du        
   5090 ****       190.5000  20.0000  45.5000 Du        
   5091 ****       190.5000  20.0000  45.7500 Du        
   5092 ****       190.5000  20.2500  44.0000 Du        
   5093 ****       190.5000  20.2500  44.2500 Du        
   5094 ****       190.5000  20.2500  44.5000 Du        
   5095 ****       190.5000  20.2500  44.7500 Du        
   5096 ****       190.5000  20.2500  45.0000 Du        
   5097 ****       190.5000  20.2500  45.2500 Du        
   5098 ****       190.5000  20.2500  45.5000 Du        
   5099 ****       190.5000  20.2500  45.7500 Du        
   5100 ****       190.5000  20.5000  44.0000 Du        
   5101 ****       190.5000  20.5000  44.2500 Du        
   5102 ****       190.5000  20.5000  44.5000 Du        
   5103 ****       190.5000  20.5000  44.7500 Du        
   5104 ****       190.5000  20.5000  45.0000 Du        
   5105 ****       190.5000  20.5000  45.2500 Du        
   5106 ****       190.5000  20.5000  45.5000 Du        
   5107 ****       190.5000  20.5000  45.7500 Du        
   5108 ****       190.5000  20.7500  44.0000 Du        
   5109 ****       190.5000  20.7500  44.2500 Du        
   5110 ****       190.5000  20.7500  44.5000 Du        
   5111 ****       190.5000  20.7500  44.7500 Du        
   5112 ****       190.5000  20.7500  45.0000 Du        
   5113 ****       190.5000  20.7500  45.2500 Du        
   5114 ****       190.5000  20.7500  45.5000 Du        
   5115 ****       190.5000  20.7500  45.7500 Du        
   5116 ****       190.5000  20.7500  46.0000 Du        
   5117 ****       190.5000  21.0000  44.2500 Du        
   5118 ****       190.5000  21.0000  44.5000 Du        
   5119 ****       190.5000  21.0000  44.7500 Du        
   5120 ****       190.5000  21.0000  45.0000 Du        
   5121 ****       190.5000  21.0000  45.2500 Du        
   5122 ****       190.5000  21.0000  45.5000 Du        
   5123 ****       190.5000  21.0000  45.7500 Du        
   5124 ****       190.5000  21.0000  46.0000 Du        
   5125 ****       190.5000  21.2500  44.5000 Du        
   5126 ****       190.5000  21.2500  44.7500 Du        
   5127 ****       190.5000  21.2500  45.0000 Du        
   5128 ****       190.5000  21.2500  45.2500 Du        
   5129 ****       190.5000  21.2500  45.5000 Du        
   5130 ****       190.5000  21.2500  45.7500 Du        
   5131 ****       190.5000  21.2500  46.0000 Du        
   5132 ****       190.5000  21.5000  44.5000 Du        
   5133 ****       190.5000  21.5000  44.7500 Du        
   5134 ****       190.5000  21.5000  45.0000 Du        
   5135 ****       190.5000  21.5000  45.2500 Du        
   5136 ****       190.5000  21.5000  45.5000 Du        
   5137 ****       190.5000  21.5000  45.7500 Du        
   5138 ****       190.5000  21.5000  46.0000 Du        
   5139 ****       190.5000  21.7500  45.0000 Du        
   5140 ****       190.5000  21.7500  45.2500 Du        
   5141 ****       190.5000  21.7500  45.5000 Du        
   5142 ****       190.5000  21.7500  45.7500 Du        
   5143 ****       190.5000  22.0000  45.0000 Du        
   5144 ****       190.5000  22.0000  45.2500 Du        
   5145 ****       190.5000  22.0000  45.5000 Du        
   5146 ****       190.5000  22.0000  45.7500 Du        
   5147 ****       190.7500  16.5000  55.7500 Du        
   5148 ****       190.7500  16.5000  56.0000 Du        
   5149 ****       190.7500  16.5000  56.2500 Du        
   5150 ****       190.7500  16.7500  55.5000 Du        
   5151 ****       190.7500  16.7500  55.7500 Du        
   5152 ****       190.7500  16.7500  56.0000 Du        
   5153 ****       190.7500  16.7500  56.2500 Du        
   5154 ****       190.7500  17.0000  55.2500 Du        
   5155 ****       190.7500  17.0000  55.5000 Du        
   5156 ****       190.7500  17.0000  55.7500 Du        
   5157 ****       190.7500  17.0000  56.0000 Du        
   5158 ****       190.7500  17.0000  56.2500 Du        
   5159 ****       190.7500  17.2500  55.2500 Du        
   5160 ****       190.7500  17.2500  55.5000 Du        
   5161 ****       190.7500  17.2500  55.7500 Du        
   5162 ****       190.7500  17.2500  56.0000 Du        
   5163 ****       190.7500  17.2500  56.2500 Du        
   5164 ****       190.7500  17.5000  55.2500 Du        
   5165 ****       190.7500  17.5000  55.5000 Du        
   5166 ****       190.7500  17.5000  55.7500 Du        
   5167 ****       190.7500  17.5000  56.0000 Du        
   5168 ****       190.7500  17.7500  55.2500 Du        
   5169 ****       190.7500  17.7500  55.5000 Du        
   5170 ****       190.7500  17.7500  55.7500 Du        
   5171 ****       190.7500  17.7500  56.0000 Du        
   5172 ****       190.7500  18.0000  55.2500 Du        
   5173 ****       190.7500  18.0000  55.5000 Du        
   5174 ****       190.7500  18.0000  55.7500 Du        
   5175 ****       190.7500  18.2500  55.2500 Du        
   5176 ****       190.7500  18.2500  55.5000 Du        
   5177 ****       190.7500  18.2500  55.7500 Du        
   5178 ****       190.7500  18.5000  55.2500 Du        
   5179 ****       190.7500  18.5000  55.5000 Du        
   5180 ****       190.7500  18.5000  55.7500 Du        
   5181 ****       190.7500  18.7500  55.2500 Du        
   5182 ****       190.7500  18.7500  55.5000 Du        
   5183 ****       190.7500  19.0000  55.2500 Du        
   5184 ****       190.7500  19.0000  55.5000 Du        
   5185 ****       190.7500  20.0000  44.7500 Du        
   5186 ****       190.7500  20.0000  45.0000 Du        
   5187 ****       190.7500  20.0000  45.2500 Du        
   5188 ****       190.7500  20.0000  45.5000 Du        
   5189 ****       190.7500  20.2500  44.2500 Du        
   5190 ****       190.7500  20.2500  44.5000 Du        
   5191 ****       190.7500  20.2500  44.7500 Du        
   5192 ****       190.7500  20.2500  45.0000 Du        
   5193 ****       190.7500  20.2500  45.2500 Du        
   5194 ****       190.7500  20.2500  45.5000 Du        
   5195 ****       190.7500  20.2500  45.7500 Du        
   5196 ****       190.7500  20.5000  44.2500 Du        
   5197 ****       190.7500  20.5000  44.5000 Du        
   5198 ****       190.7500  20.5000  44.7500 Du        
   5199 ****       190.7500  20.5000  45.0000 Du        
   5200 ****       190.7500  20.5000  45.2500 Du        
   5201 ****       190.7500  20.5000  45.5000 Du        
   5202 ****       190.7500  20.5000  45.7500 Du        
   5203 ****       190.7500  20.7500  44.2500 Du        
   5204 ****       190.7500  20.7500  44.5000 Du        
   5205 ****       190.7500  20.7500  44.7500 Du        
   5206 ****       190.7500  20.7500  45.0000 Du        
   5207 ****       190.7500  20.7500  45.2500 Du        
   5208 ****       190.7500  20.7500  45.5000 Du        
   5209 ****       190.7500  20.7500  45.7500 Du        
   5210 ****       190.7500  20.7500  46.0000 Du        
   5211 ****       190.7500  21.0000  44.5000 Du        
   5212 ****       190.7500  21.0000  44.7500 Du        
   5213 ****       190.7500  21.0000  45.0000 Du        
   5214 ****       190.7500  21.0000  45.2500 Du        
   5215 ****       190.7500  21.0000  45.5000 Du        
   5216 ****       190.7500  21.0000  45.7500 Du        
   5217 ****       190.7500  21.0000  46.0000 Du        
   5218 ****       190.7500  21.2500  44.7500 Du        
   5219 ****       190.7500  21.2500  45.0000 Du        
   5220 ****       190.7500  21.2500  45.2500 Du        
   5221 ****       190.7500  21.2500  45.5000 Du        
   5222 ****       190.7500  21.2500  45.7500 Du        
   5223 ****       190.7500  21.2500  46.0000 Du        
   5224 ****       190.7500  21.5000  44.7500 Du        
   5225 ****       190.7500  21.5000  45.0000 Du        
   5226 ****       190.7500  21.5000  45.2500 Du        
   5227 ****       190.7500  21.5000  45.5000 Du        
   5228 ****       190.7500  21.5000  45.7500 Du        
   5229 ****       190.7500  21.7500  45.5000 Du        
   5230 ****       190.7500  21.7500  45.7500 Du        
   5231 ****       190.7500  22.0000  45.5000 Du        
   5232 ****       191.0000  16.5000  55.7500 Du        
   5233 ****       191.0000  16.5000  56.0000 Du        
   5234 ****       191.0000  16.5000  56.2500 Du        
   5235 ****       191.0000  16.7500  55.5000 Du        
   5236 ****       191.0000  16.7500  55.7500 Du        
   5237 ****       191.0000  16.7500  56.0000 Du        
   5238 ****       191.0000  16.7500  56.2500 Du        
   5239 ****       191.0000  17.0000  55.5000 Du        
   5240 ****       191.0000  17.0000  55.7500 Du        
   5241 ****       191.0000  17.0000  56.0000 Du        
   5242 ****       191.0000  17.0000  56.2500 Du        
   5243 ****       191.0000  17.2500  55.5000 Du        
   5244 ****       191.0000  17.2500  55.7500 Du        
   5245 ****       191.0000  17.2500  56.0000 Du        
   5246 ****       191.0000  17.2500  56.2500 Du        
   5247 ****       191.0000  17.5000  55.5000 Du        
   5248 ****       191.0000  17.5000  55.7500 Du        
   5249 ****       191.0000  17.5000  56.0000 Du        
   5250 ****       191.0000  17.7500  55.5000 Du        
   5251 ****       191.0000  17.7500  55.7500 Du        
   5252 ****       191.0000  17.7500  56.0000 Du        
   5253 ****       191.0000  18.0000  55.5000 Du        
   5254 ****       191.0000  18.0000  55.7500 Du        
   5255 ****       191.0000  18.2500  55.5000 Du        
   5256 ****       191.0000  18.2500  55.7500 Du        
   5257 ****       191.0000  18.5000  55.5000 Du        
   5258 ****       191.0000  18.7500  55.5000 Du        
   5259 ****       191.0000  20.0000  45.0000 Du        
   5260 ****       191.0000  20.0000  45.2500 Du        
   5261 ****       191.0000  20.0000  45.5000 Du        
   5262 ****       191.0000  20.2500  44.7500 Du        
   5263 ****       191.0000  20.2500  45.0000 Du        
   5264 ****       191.0000  20.2500  45.2500 Du        
   5265 ****       191.0000  20.2500  45.5000 Du        
   5266 ****       191.0000  20.2500  45.7500 Du        
   5267 ****       191.0000  20.5000  44.5000 Du        
   5268 ****       191.0000  20.5000  44.7500 Du        
   5269 ****       191.0000  20.5000  45.0000 Du        
   5270 ****       191.0000  20.5000  45.2500 Du        
   5271 ****       191.0000  20.5000  45.5000 Du        
   5272 ****       191.0000  20.5000  45.7500 Du        
   5273 ****       191.0000  20.7500  44.5000 Du        
   5274 ****       191.0000  20.7500  44.7500 Du        
   5275 ****       191.0000  20.7500  45.0000 Du        
   5276 ****       191.0000  20.7500  45.2500 Du        
   5277 ****       191.0000  20.7500  45.5000 Du        
   5278 ****       191.0000  20.7500  45.7500 Du        
   5279 ****       191.0000  20.7500  46.0000 Du        
   5280 ****       191.0000  21.0000  44.5000 Du        
   5281 ****       191.0000  21.0000  44.7500 Du        
   5282 ****       191.0000  21.0000  45.0000 Du        
   5283 ****       191.0000  21.0000  45.2500 Du        
   5284 ****       191.0000  21.0000  45.5000 Du        
   5285 ****       191.0000  21.0000  45.7500 Du        
   5286 ****       191.0000  21.0000  46.0000 Du        
   5287 ****       191.0000  21.2500  44.7500 Du        
   5288 ****       191.0000  21.2500  45.0000 Du        
   5289 ****       191.0000  21.2500  45.2500 Du        
   5290 ****       191.0000  21.2500  45.5000 Du        
   5291 ****       191.0000  21.2500  45.7500 Du        
   5292 ****       191.0000  21.5000  44.7500 Du        
   5293 ****       191.0000  21.5000  45.0000 Du        
   5294 ****       191.0000  21.5000  45.2500 Du        
   5295 ****       191.0000  21.5000  45.5000 Du        
   5296 ****       191.0000  21.5000  45.7500 Du        
   5297 ****       191.0000  21.7500  45.5000 Du        
   5298 ****       191.0000  22.0000  45.5000 Du        
   5299 ****       191.2500  20.2500  45.0000 Du        
   5300 ****       191.2500  20.2500  45.2500 Du        
   5301 ****       191.2500  20.2500  45.5000 Du        
   5302 ****       191.2500  20.5000  44.7500 Du        
   5303 ****       191.2500  20.5000  45.0000 Du        
   5304 ****       191.2500  20.5000  45.2500 Du        
   5305 ****       191.2500  20.5000  45.5000 Du        
   5306 ****       191.2500  20.5000  45.7500 Du        
   5307 ****       191.2500  20.7500  44.7500 Du        
   5308 ****       191.2500  20.7500  45.0000 Du        
   5309 ****       191.2500  20.7500  45.2500 Du        
   5310 ****       191.2500  20.7500  45.5000 Du        
   5311 ****       191.2500  20.7500  45.7500 Du        
   5312 ****       191.2500  21.0000  44.7500 Du        
   5313 ****       191.2500  21.0000  45.0000 Du        
   5314 ****       191.2500  21.0000  45.2500 Du        
   5315 ****       191.2500  21.0000  45.5000 Du        
   5316 ****       191.2500  21.0000  45.7500 Du        
   5317 ****       191.2500  21.2500  45.0000 Du        
   5318 ****       191.2500  21.2500  45.2500 Du        
   5319 ****       191.2500  21.2500  45.5000 Du        
   5320 ****       191.2500  21.2500  45.7500 Du        
   5321 ****       191.2500  21.5000  45.0000 Du        
   5322 ****       191.2500  21.5000  45.2500 Du        
   5323 ****       191.2500  21.5000  45.5000 Du        
   5324 ****       191.5000  20.2500  45.2500 Du        
   5325 ****       191.5000  20.2500  45.5000 Du        
   5326 ****       191.5000  20.5000  45.0000 Du        
   5327 ****       191.5000  20.5000  45.2500 Du        
   5328 ****       191.5000  20.5000  45.5000 Du        
   5329 ****       191.5000  20.5000  45.7500 Du        
   5330 ****       191.5000  20.7500  44.7500 Du        
   5331 ****       191.5000  20.7500  45.0000 Du        
   5332 ****       191.5000  20.7500  45.2500 Du        
   5333 ****       191.5000  20.7500  45.5000 Du        
   5334 ****       191.5000  20.7500  45.7500 Du        
   5335 ****       191.5000  21.0000  45.0000 Du        
   5336 ****       191.5000  21.0000  45.2500 Du        
   5337 ****       191.5000  21.0000  45.5000 Du        
   5338 ****       191.5000  21.0000  45.7500 Du        
   5339 ****       191.5000  21.2500  45.0000 Du        
   5340 ****       191.5000  21.2500  45.2500 Du        
   5341 ****       191.5000  21.2500  45.5000 Du        
   5342 ****       191.5000  21.5000  45.2500 Du        
   5343 ****       191.5000  21.5000  45.5000 Du        
   5344 ****       191.7500  20.5000  45.2500 Du        
   5345 ****       191.7500  20.5000  45.5000 Du        
   5346 ****       191.7500  20.7500  45.0000 Du        
   5347 ****       191.7500  20.7500  45.2500 Du        
   5348 ****       191.7500  20.7500  45.5000 Du        
   5349 ****       191.7500  20.7500  45.7500 Du        
   5350 ****       191.7500  21.0000  45.0000 Du        
   5351 ****       191.7500  21.0000  45.2500 Du        
   5352 ****       191.7500  21.0000  45.5000 Du        
   5353 ****       191.7500  21.2500  45.5000 Du        
   5354 ****       192.0000  21.0000  45.2500 Du        
   5355 ****       192.0000  21.0000  45.5000 Du        
