#       Name:                CT1002167954
#       Creating user name   hitesit
#       Creation time:       Sun Apr 16 22:56:30 2023


#       File generated by GOLD software.
#

@<TRIPOS>MOLECULE
CT1002167954|ligand_prepared|mol2|1|dock7
    29    30     1
SMALL
NO_CHARGES


@<TRIPOS>ATOM
      1 C1         186.7062  18.6025  49.2855 C.3            1 RES1               0.0000
      2 C2         186.9201  17.0812  49.4224 C.ar           1 RES1               0.0000
      3 C3         185.5841  18.9662  50.2534 C.2            1 RES1               0.0000
      4 C4         188.0457  19.2528  49.6132 C.2            1 RES1               0.0000
      5 C5         186.2930  19.0500  47.8640 C.3            1 RES1               0.0000
      6 C6         187.7000  16.3895  48.5004 C.ar           1 RES1               0.0000
      7 C7         186.3471  16.3577  50.4648 C.ar           1 RES1               0.0000
      8 N8         185.9254  19.6258  51.3973 N.am           1 RES1               0.0000
      9 O9         184.4226  18.6444  50.0352 O.2            1 RES1               0.0000
     10 N10        188.1231  20.0320  50.7378 N.am           1 RES1               0.0000
     11 O11        189.0392  19.0841  48.9169 O.2            1 RES1               0.0000
     12 C12        185.8528  20.5031  47.7823 C.3            1 RES1               0.0000
     13 C13        187.9024  15.0244  48.6180 C.ar           1 RES1               0.0000
     14 C14        186.5506  14.9925  50.5804 C.ar           1 RES1               0.0000
     15 C15        187.1317  20.2230  51.6614 C.2            1 RES1               0.0000
     16 C16        187.3282  14.3251  49.6582 C.ar           1 RES1               0.0000
     17 O17        187.2943  20.8941  52.6764 O.2            1 RES1               0.0000
     18 H18        187.1420  18.8995  47.1857 H              1 RES1               0.0000
     19 H19        185.4704  18.4119  47.5181 H              1 RES1               0.0000
     20 H20        188.1579  16.9226  47.6738 H              1 RES1               0.0000
     21 H21        185.7307  16.8616  51.2014 H              1 RES1               0.0000
     22 H22        185.2183  19.6798  52.1235 H              1 RES1               0.0000
     23 H23        189.0011  20.5144  50.9016 H              1 RES1               0.0000
     24 H24        185.5739  20.7650  46.7638 H              1 RES1               0.0000
     25 H25        184.9940  20.6828  48.4257 H              1 RES1               0.0000
     26 H26        186.6556  21.1675  48.0953 H              1 RES1               0.0000
     27 H27        188.5141  14.5036  47.8888 H              1 RES1               0.0000
     28 H28        186.0963  14.4460  51.4003 H              1 RES1               0.0000
     29 H29        187.4872  13.2558  49.7503 H              1 RES1               0.0000
@<TRIPOS>BOND
    1    1    2 1     
    2    1    3 1     
    3    1    4 1     
    4    1    5 1     
    5    2    6 ar    
    6    2    7 ar    
    7    3    8 1     
    8    3    9 2     
    9    4   10 1     
   10    4   11 2     
   11    5   12 1     
   12    5   18 1     
   13    5   19 1     
   14    6   13 ar    
   15    6   20 1     
   16    7   14 ar    
   17    7   21 1     
   18    8   15 1     
   19    8   22 1     
   20   10   15 1     
   21   10   23 1     
   22   12   24 1     
   23   12   25 1     
   24   12   26 1     
   25   13   16 ar    
   26   13   27 1     
   27   14   16 ar    
   28   14   28 1     
   29   15   17 2     
   30   16   29 1     
@<TRIPOS>SUBSTRUCTURE
      1 RES1           1
@<TRIPOS>SET
DONOR_HYDROGENS      STATIC     ATOMS    <user>   **** ""
2 22 23
ATOM$RED        STATIC     ATOMS    COLORGROUP SYSTEM
2 22 23
@<TRIPOS>COMMENT
> <Gold.Version>
2022.3.0

> <Gold.Id.Protein>
unknown|4d1n_clean|pdb

> <Gold.Protein.RotatedTorsions>
[ 16977 16944 16943 16941 ] final  -20.16 input   59.98 | X-H torsion
[ 18494 18452 18451 18449 ] final -107.31 input   59.98 | X-H torsion
[ 18554 18521 18522 18523 ] final   73.33 input   91.55 | X-H torsion
[ 18707 18674 18675 18676 ] final  142.85 input  121.65 | X-H torsion
[ 18768 18733 18734 18735 ] final  -75.45 input   95.18 | X-H torsion
[ 18950 18904 18905 18906 ] final  106.21 input   99.08 | X-H torsion
[ 19025 18997 18998 18999 ] final  -62.89 input  121.68 | X-H torsion
[ 17185 17170 17171 17172 ] final -170.88 input   47.05 | X-H torsion
[ 17233 17212 17213 17214 ] final  -24.98 input  118.29 | X-H torsion
[ 18820 18805 18806 18807 ] final  110.49 input  116.09 | X-H torsion
[ 19094 19049 19050 19051 ] final  -33.47 input   88.91 | X-H torsion
[ 18486 18441 18442 18443 ] final -140.66 input  100.68 | X-H torsion
[ 17293 17275 17276 17277 ] final  107.55 input   51.25 | X-H torsion
[ 18289 18267 18268 18269 ] final  -73.73 input   31.65 | X-H torsion
[ 18324 18309 18310 18311 ] final -141.58 input   53.83 | X-H torsion
[ 18399 18347 18348 18349 ] final  136.38 input   27.99 | X-H torsion
[ 7521 7509 7510 7511 ] final  -77.10 input   80.33 | X-H torsion
[ 7486 7448 7449 7450 ] final  148.52 input   99.31 | X-H torsion
[ 18600 18585 18586 18587 ] final -100.83 input  129.83 | X-H torsion
[ 10110 10088 10087 10084 ] final -143.31 input   59.98 | X-H torsion
[ 18293 18272 18271 18268 ] final   13.58 input   59.99 | X-H torsion
[ 18650 18622 18620 18617 ] final  -86.18 input   59.97 | X-H torsion
[ 18866 18836 18837 18838 ] final  138.24 input   87.55 | X-H torsion
[ 22436 22408 22409 22410 ] final -106.78 input   59.22 | X-H torsion
[ 10146 10126 10127 10128 ] final   60.34 input   20.82 | X-H torsion
[ 18225 18192 18193 18194 ] final -158.72 input   40.98 | X-H torsion
[ 11813 11769 11770 11771 ] final  138.85 input   85.42 | X-H torsion
[ 16969 16933 16934 16935 ] final  -96.81 input   88.91 | X-H torsion
[ 27198 18524 18523 18522 ] final  -83.05 input    0.00 | X-H torsion
[ 27200 18619 18618 18617 ] final  -63.44 input    0.00 | X-H torsion
[ 27203 18677 18676 18675 ] final   25.26 input    0.00 | X-H torsion
[ 27223 17119 17118 17117 ] final   92.81 input    0.00 | X-H torsion
[ 27227 11596 11595 11594 ] final -132.28 input   -0.00 | X-H torsion
[ 27231 17044 17043 17042 ] final  131.99 input    0.00 | X-H torsion
[ 27233 18736 18735 18734 ] final  -45.30 input   -0.00 | X-H torsion
[ 27235 18588 18587 18586 ] final  -53.62 input    0.00 | X-H torsion
[ 27238 18907 18906 18905 ] final    1.68 input    0.00 | X-H torsion
[ 27240 19000 18999 18998 ] final  100.81 input    0.00 | X-H torsion
[ 27243 17173 17172 17171 ] final   -0.18 input    0.00 | X-H torsion
[ 27245 18350 18349 18348 ] final -163.36 input    0.00 | X-H torsion
[ 27248 11406 11405 11404 ] final   -2.85 input   -0.00 | X-H torsion
[ 27250 18195 18194 18193 ] final  106.55 input    0.00 | X-H torsion
[ 27254 17215 17214 17213 ] final  -17.03 input   -0.00 | X-H torsion
[ 27260 18312 18311 18310 ] final  -82.11 input   -0.00 | X-H torsion
[ 27262 18444 18443 18442 ] final -176.40 input    0.00 | X-H torsion
[ 27265 18270 18269 18268 ] final  -83.61 input    0.00 | X-H torsion
[ 27273 16936 16935 16934 ] final  126.60 input   -0.00 | X-H torsion

> <Gold.Protein.ActiveResidues>
 TRP414  CYS420  VAL421  GLY422  LEU460  SER462  ALA463  SER482  GLN483  ILE485 
 ARG486  TYR487  ASP500  ASN503  TRP566  TYR567  LEU569  PRO570  ALA571  VAL572 
 SER573  ASN574  PHE589  SER590  GLY591  TRP592  TYR593  MET594  GLY595  THR596 
 GLU597  ILE598  GLY599  VAL600  ARG601  ASP602  TYR603  ARG608  ILE653  VAL654 
 TRP683  PRO687  HEM750  H4B760 

> <Gold.Protein.RotatedAtoms>
  195.6516   12.1627   53.7530 H   0  0  0  0  0  0  0  0  0  0  0  0  # atno 7486 bound_to 7448
  195.9045    8.9734   54.9413 H   0  0  0  0  0  0  0  0  0  0  0  0  # atno 7521 bound_to 7509
  190.1889    2.5476   50.9453 H   0  0  0  0  0  0  0  0  0  0  0  0  # atno 10110 bound_to 10088
  186.9672    2.2133   47.2166 H   0  0  0  0  0  0  0  0  0  0  0  0  # atno 10146 bound_to 10126
  175.9675   16.8558   48.1525 H   0  0  0  0  0  0  0  0  0  0  0  0  # atno 11813 bound_to 11769
  175.5566   12.4209   54.2753 H   0  0  0  0  0  0  0  0  0  0  0  0  # atno 16969 bound_to 16933
  181.1715   14.4992   49.7770 H   0  0  0  0  0  0  0  0  0  0  0  0  # atno 16977 bound_to 16944
  183.1666    9.3829   48.1257 H   0  0  0  0  0  0  0  0  0  0  0  0  # atno 17185 bound_to 17170
  184.8820   10.0019   44.7713 H   0  0  0  0  0  0  0  0  0  0  0  0  # atno 17233 bound_to 17212
  184.7632   12.4365   42.5290 H   0  0  0  0  0  0  0  0  0  0  0  0  # atno 17293 bound_to 17275
  187.0019    6.8971   41.7326 H   0  0  0  0  0  0  0  0  0  0  0  0  # atno 18225 bound_to 18192
  187.8454    6.0777   45.7539 H   0  0  0  0  0  0  0  0  0  0  0  0  # atno 18289 bound_to 18267
  185.3633    3.9233   47.0409 H   0  0  0  0  0  0  0  0  0  0  0  0  # atno 18293 bound_to 18272
  187.2225    5.3461   48.7125 H   0  0  0  0  0  0  0  0  0  0  0  0  # atno 18324 bound_to 18309
  186.7320    5.0482   52.8083 H   0  0  0  0  0  0  0  0  0  0  0  0  # atno 18399 bound_to 18347
  185.1008    8.1740   54.2314 H   0  0  0  0  0  0  0  0  0  0  0  0  # atno 18486 bound_to 18441
  181.2093   14.2319   52.3055 H   0  0  0  0  0  0  0  0  0  0  0  0  # atno 18494 bound_to 18452
  187.2483   11.3200   56.1497 H   0  0  0  0  0  0  0  0  0  0  0  0  # atno 18554 bound_to 18521
  186.0969   11.7802   59.1264 H   0  0  0  0  0  0  0  0  0  0  0  0  # atno 18600 bound_to 18585
  189.3127   15.3849   60.1722 H   0  0  0  0  0  0  0  0  0  0  0  0  # atno 18650 bound_to 18622
  186.9846   15.3609   58.0005 H   0  0  0  0  0  0  0  0  0  0  0  0  # atno 18707 bound_to 18674
  184.4676   17.1213   56.7128 H   0  0  0  0  0  0  0  0  0  0  0  0  # atno 18768 bound_to 18733
  183.2050   16.7727   59.5933 H   0  0  0  0  0  0  0  0  0  0  0  0  # atno 18820 bound_to 18805
  184.7498   19.0190   60.5819 H   0  0  0  0  0  0  0  0  0  0  0  0  # atno 18866 bound_to 18836
  185.4333   20.1147   57.7554 H   0  0  0  0  0  0  0  0  0  0  0  0  # atno 18950 bound_to 18904
  183.5967   21.6095   55.5897 H   0  0  0  0  0  0  0  0  0  0  0  0  # atno 19025 bound_to 18997
  181.3221   22.0274   56.2749 H   0  0  0  0  0  0  0  0  0  0  0  0  # atno 19094 bound_to 19049
  185.6342    7.0829   60.7487 H   0  0  0  0  0  0  0  0  0  0  0  0  # atno 22436 bound_to 22408
  180.1775   15.7589   50.0461 LP  0  0  0  0  0  0  0  0  0  0  0  0  # atno 27193 bound_to 16944
  180.1888   15.0204   48.5896 LP  0  0  0  0  0  0  0  0  0  0  0  0  # atno 27194 bound_to 16944
  181.5269   13.0754   51.2053 LP  0  0  0  0  0  0  0  0  0  0  0  0  # atno 27195 bound_to 18452
  182.6740   14.1691   51.5986 LP  0  0  0  0  0  0  0  0  0  0  0  0  # atno 27196 bound_to 18452
  186.7595    9.8437   56.9508 LP  0  0  0  0  0  0  0  0  0  0  0  0  # atno 27197 bound_to 18521
  186.8720   14.1012   57.8395 LP  0  0  0  0  0  0  0  0  0  0  0  0  # atno 27198 bound_to 18524
  185.4334   13.2109   57.4683 LP  0  0  0  0  0  0  0  0  0  0  0  0  # atno 27199 bound_to 18524
  185.3047   18.6902   59.0388 LP  0  0  0  0  0  0  0  0  0  0  0  0  # atno 27200 bound_to 18619
  186.6960   18.8661   58.0222 LP  0  0  0  0  0  0  0  0  0  0  0  0  # atno 27201 bound_to 18619
  186.1266   16.7625   58.5897 LP  0  0  0  0  0  0  0  0  0  0  0  0  # atno 27202 bound_to 18674
  185.0271   18.4345   55.0190 LP  0  0  0  0  0  0  0  0  0  0  0  0  # atno 27203 bound_to 18677
  183.6963   18.7712   56.0753 LP  0  0  0  0  0  0  0  0  0  0  0  0  # atno 27204 bound_to 18677
  184.0801   15.6121   57.5112 LP  0  0  0  0  0  0  0  0  0  0  0  0  # atno 27209 bound_to 18733
  184.7977   21.5816   58.4572 LP  0  0  0  0  0  0  0  0  0  0  0  0  # atno 27210 bound_to 18904
  183.4625   19.8751   55.7454 LP  0  0  0  0  0  0  0  0  0  0  0  0  # atno 27211 bound_to 18997
  184.4165    7.7124   48.6631 LP  0  0  0  0  0  0  0  0  0  0  0  0  # atno 27223 bound_to 17119
  185.5983    8.9727   48.7859 LP  0  0  0  0  0  0  0  0  0  0  0  0  # atno 27224 bound_to 17119
  183.2851   10.9229   47.3079 LP  0  0  0  0  0  0  0  0  0  0  0  0  # atno 27225 bound_to 17170
  185.8016   10.6089   46.1311 LP  0  0  0  0  0  0  0  0  0  0  0  0  # atno 27226 bound_to 17212
  178.9496   13.7284   47.7690 LP  0  0  0  0  0  0  0  0  0  0  0  0  # atno 27227 bound_to 11596
  179.7695   12.9005   46.4875 LP  0  0  0  0  0  0  0  0  0  0  0  0  # atno 27228 bound_to 11596
  180.5572   10.4445   49.2594 LP  0  0  0  0  0  0  0  0  0  0  0  0  # atno 27231 bound_to 17044
  180.0908    8.9857   48.4504 LP  0  0  0  0  0  0  0  0  0  0  0  0  # atno 27232 bound_to 17044
  182.0187   19.5525   57.2385 LP  0  0  0  0  0  0  0  0  0  0  0  0  # atno 27233 bound_to 18736
  181.0406   19.4328   58.6630 LP  0  0  0  0  0  0  0  0  0  0  0  0  # atno 27234 bound_to 18736
  183.6696   15.1117   59.2965 LP  0  0  0  0  0  0  0  0  0  0  0  0  # atno 27235 bound_to 18588
  184.1144   16.1795   60.5857 LP  0  0  0  0  0  0  0  0  0  0  0  0  # atno 27236 bound_to 18588
  182.2314   17.8571   58.6227 LP  0  0  0  0  0  0  0  0  0  0  0  0  # atno 27237 bound_to 18805
  183.8526   23.7930   55.6738 LP  0  0  0  0  0  0  0  0  0  0  0  0  # atno 27238 bound_to 18907
  182.3667   23.0869   55.1321 LP  0  0  0  0  0  0  0  0  0  0  0  0  # atno 27239 bound_to 18907
  178.9384   21.8929   54.8768 LP  0  0  0  0  0  0  0  0  0  0  0  0  # atno 27240 bound_to 19000
  180.1043   23.1458   54.6108 LP  0  0  0  0  0  0  0  0  0  0  0  0  # atno 27241 bound_to 19000
  180.8637   20.4875   56.9640 LP  0  0  0  0  0  0  0  0  0  0  0  0  # atno 27242 bound_to 19049
  182.5713   10.2888   44.1250 LP  0  0  0  0  0  0  0  0  0  0  0  0  # atno 27243 bound_to 17173
  183.8220   11.3060   43.4918 LP  0  0  0  0  0  0  0  0  0  0  0  0  # atno 27244 bound_to 17173
  187.5963    8.7996   54.8592 LP  0  0  0  0  0  0  0  0  0  0  0  0  # atno 27245 bound_to 18350
  187.7264    7.7090   53.5200 LP  0  0  0  0  0  0  0  0  0  0  0  0  # atno 27246 bound_to 18350
  184.9912    7.5925   55.8758 LP  0  0  0  0  0  0  0  0  0  0  0  0  # atno 27247 bound_to 18441
  185.4467   14.9088   42.1008 LP  0  0  0  0  0  0  0  0  0  0  0  0  # atno 27248 bound_to 11406
  184.7429   13.8125   43.2421 LP  0  0  0  0  0  0  0  0  0  0  0  0  # atno 27249 bound_to 11406
  185.7025    8.1498   45.2896 LP  0  0  0  0  0  0  0  0  0  0  0  0  # atno 27250 bound_to 18195
  187.3708    8.6073   45.3765 LP  0  0  0  0  0  0  0  0  0  0  0  0  # atno 27251 bound_to 18195
  187.2326    9.7201   43.1714 LP  0  0  0  0  0  0  0  0  0  0  0  0  # atno 27254 bound_to 17215
  186.3532    9.7288   41.6793 LP  0  0  0  0  0  0  0  0  0  0  0  0  # atno 27255 bound_to 17215
  186.4403   12.0069   42.3323 LP  0  0  0  0  0  0  0  0  0  0  0  0  # atno 27256 bound_to 17275
  186.3678    5.2537   45.3203 LP  0  0  0  0  0  0  0  0  0  0  0  0  # atno 27257 bound_to 18267
  186.5917    6.6939   49.6359 LP  0  0  0  0  0  0  0  0  0  0  0  0  # atno 27258 bound_to 18309
  186.8163    6.6973   52.2197 LP  0  0  0  0  0  0  0  0  0  0  0  0  # atno 27259 bound_to 18347
  184.3774    5.3473   50.9713 LP  0  0  0  0  0  0  0  0  0  0  0  0  # atno 27260 bound_to 18312
  184.7028    4.0191   52.0343 LP  0  0  0  0  0  0  0  0  0  0  0  0  # atno 27261 bound_to 18312
  186.7988    8.9298   58.6374 LP  0  0  0  0  0  0  0  0  0  0  0  0  # atno 27262 bound_to 18444
  185.6055    8.0967   57.6982 LP  0  0  0  0  0  0  0  0  0  0  0  0  # atno 27263 bound_to 18444
  194.6564    9.2890   53.7652 LP  0  0  0  0  0  0  0  0  0  0  0  0  # atno 27264 bound_to 7509
  186.6951    3.3005   48.2061 LP  0  0  0  0  0  0  0  0  0  0  0  0  # atno 27265 bound_to 18270
  188.3138    3.8748   47.9828 LP  0  0  0  0  0  0  0  0  0  0  0  0  # atno 27266 bound_to 18270
  195.8887   10.5693   53.0667 LP  0  0  0  0  0  0  0  0  0  0  0  0  # atno 27267 bound_to 7448
  187.1026   12.2015   60.4916 LP  0  0  0  0  0  0  0  0  0  0  0  0  # atno 27268 bound_to 18585
  189.5922    1.1798   51.5945 LP  0  0  0  0  0  0  0  0  0  0  0  0  # atno 27269 bound_to 10088
  188.5853    2.3959   51.1773 LP  0  0  0  0  0  0  0  0  0  0  0  0  # atno 27270 bound_to 10088
  184.1693    4.4307   46.0589 LP  0  0  0  0  0  0  0  0  0  0  0  0  # atno 27271 bound_to 18272
  183.8608    4.1230   47.6326 LP  0  0  0  0  0  0  0  0  0  0  0  0  # atno 27272 bound_to 18272
  178.7295   10.5021   54.8465 LP  0  0  0  0  0  0  0  0  0  0  0  0  # atno 27273 bound_to 16936
  178.9276   11.4511   53.4112 LP  0  0  0  0  0  0  0  0  0  0  0  0  # atno 27274 bound_to 16936

> <Gold.Score>
     Fitness  S(hb_ext) S(vdw_ext)  S(hb_int)    S(int)      intcor
     32.64       7.87      19.12       0.00      -1.52      -0.76

> <Gold.Goldscore.Fitness>
32.6365

> <Gold.Goldscore.Internal.Vdw>
-1.7470

> <Gold.Goldscore.Internal.Torsion>
-0.5268

> <Gold.Goldscore.External.Vdw>
19.1166

> <Gold.Goldscore.Internal.HBond>
0.0000

> <Gold.Goldscore.External.HBond>
7.8664

> <Gold.Goldscore.Internal.Correction>
-0.7585

> <Gold.Goldscore.Hbonds>
donor molecule, donor type, donor heavy atom, donor atom, acceptor molecule, acceptor atom, score
      L1  H     8    22       P1 19003  0.31
      L1  H    10    23       P1 27088  1.00

> <Gold.Goldscore.Internal.Vdw.Weighted>
-1.7470

> <Gold.Goldscore.Internal.Torsion.Weighted>
-0.5268

> <Gold.Goldscore.External.Vdw.Weighted>
26.2854

> <Gold.Goldscore.Internal.HBond.Weighted>
0.0000

> <Gold.Goldscore.External.HBond.Weighted>
7.8664

> <Gold.Goldscore.Internal.Correction.Weighted>
-0.7585

> <Gold.Rescore>
     Score     S(PLP)   S(hbond)     S(cho)   S(metal)  DE(clash)   DE(tors)     intcor
      4.37      -4.46       0.67       0.00       0.00       0.00       1.05       ----

> <Gold.PLP.Fitness>
4.3685

> <Gold.PLP.PLP>
-4.4625

> <Gold.PLP.part.hbond>
-2.4957

> <Gold.PLP.part.metal>
0.0000

> <Gold.PLP.part.buried>
13.3651

> <Gold.PLP.part.nonpolar>
-15.0795

> <Gold.PLP.part.repulsive>
4.3710

> <Gold.PLP.ligand.clash>
0.0000

> <Gold.PLP.ligand.torsion>
1.0464

> <Gold.PLP.Chemscore.Hbond>
0.6663

> <Gold.PLP.Chemscore.CHOScore>
0.0000

> <Gold.PLP.Chemscore.Metal>
0.0000

> <Gold.Chemscore.Hbonds>
donor molecule, donor type, donor heavy atom, donor atom, acceptor molecule, acceptor atom, score
      L1  H     8    22       P1 19003  0.23
      L1  H    10    23       P1 27088  0.55
      P1  H 19333 19370       L1     9  0.07

> <Gold.PLP.Chemscore.Internal.Correction>
   9.000000E+99

