#       Name:                CT1002167954
#       Creating user name   hitesit
#       Creation time:       Sun Apr 16 22:56:25 2023


#       File generated by GOLD software.
#

@<TRIPOS>MOLECULE
CT1002167954|ligand_prepared|mol2|1|dock1
    29    30     1
SMALL
NO_CHARGES


@<TRIPOS>ATOM
      1 C1         185.5791  17.0161  50.8935 C.3            1 RES1               0.0000
      2 C2         186.0331  15.6615  50.3124 C.ar           1 RES1               0.0000
      3 C3         185.1760  17.8799  49.7020 C.2            1 RES1               0.0000
      4 C4         184.4353  16.7069  51.8530 C.2            1 RES1               0.0000
      5 C5         186.6810  17.7566  51.6866 C.3            1 RES1               0.0000
      6 C6         185.2122  14.5413  50.4017 C.ar           1 RES1               0.0000
      7 C7         187.2666  15.5174  49.6829 C.ar           1 RES1               0.0000
      8 N8         183.8445  18.0926  49.4975 N.am           1 RES1               0.0000
      9 O9         186.0117  18.3348  48.9307 O.2            1 RES1               0.0000
     10 N10        183.1867  17.1738  51.5354 N.am           1 RES1               0.0000
     11 O11        184.6007  16.0489  52.8728 O.2            1 RES1               0.0000
     12 C12        186.1707  18.9528  52.4744 C.3            1 RES1               0.0000
     13 C13        185.6088  13.3219  49.8782 C.ar           1 RES1               0.0000
     14 C14        187.6613  14.2970  49.1602 C.ar           1 RES1               0.0000
     15 C15        182.8336  17.8264  50.3858 C.2            1 RES1               0.0000
     16 C16        186.8332  13.1990  49.2567 C.ar           1 RES1               0.0000
     17 O17        181.6786  18.1671  50.1472 O.2            1 RES1               0.0000
     18 H18        187.1508  17.0501  52.3820 H              1 RES1               0.0000
     19 H19        187.4517  18.0988  50.9848 H              1 RES1               0.0000
     20 H20        184.2462  14.6182  50.8894 H              1 RES1               0.0000
     21 H21        187.9349  16.3674  49.5963 H              1 RES1               0.0000
     22 H22        183.5755  18.4859  48.6013 H              1 RES1               0.0000
     23 H23        182.4526  17.0209  52.2195 H              1 RES1               0.0000
     24 H24        186.9838  19.4360  53.0121 H              1 RES1               0.0000
     25 H25        185.7195  19.6877  51.8109 H              1 RES1               0.0000
     26 H26        185.4203  18.6452  53.1998 H              1 RES1               0.0000
     27 H27        184.9540  12.4604  49.9579 H              1 RES1               0.0000
     28 H28        188.6262  14.2048  48.6724 H              1 RES1               0.0000
     29 H29        187.1435  12.2437  48.8463 H              1 RES1               0.0000
@<TRIPOS>BOND
    1    1    2 1     
    2    1    3 1     
    3    1    4 1     
    4    1    5 1     
    5    2    6 ar    
    6    2    7 ar    
    7    3    8 1     
    8    3    9 2     
    9    4   10 1     
   10    4   11 2     
   11    5   12 1     
   12    5   18 1     
   13    5   19 1     
   14    6   13 ar    
   15    6   20 1     
   16    7   14 ar    
   17    7   21 1     
   18    8   15 1     
   19    8   22 1     
   20   10   15 1     
   21   10   23 1     
   22   12   24 1     
   23   12   25 1     
   24   12   26 1     
   25   13   16 ar    
   26   13   27 1     
   27   14   16 ar    
   28   14   28 1     
   29   15   17 2     
   30   16   29 1     
@<TRIPOS>SUBSTRUCTURE
      1 RES1           1
@<TRIPOS>SET
DONOR_HYDROGENS      STATIC     ATOMS    <user>   **** ""
2 22 23
ATOM$RED        STATIC     ATOMS    COLORGROUP SYSTEM
2 22 23
@<TRIPOS>COMMENT
> <Gold.Version>
2022.3.0

> <Gold.Id.Protein>
unknown|4d1n_clean|pdb

> <Gold.Protein.RotatedTorsions>
[ 16977 16944 16943 16941 ] final -110.71 input   59.98 | X-H torsion
[ 18494 18452 18451 18449 ] final  -41.28 input   59.98 | X-H torsion
[ 18554 18521 18522 18523 ] final   59.29 input   91.55 | X-H torsion
[ 18707 18674 18675 18676 ] final -105.95 input  121.65 | X-H torsion
[ 18768 18733 18734 18735 ] final  -96.78 input   95.18 | X-H torsion
[ 18950 18904 18905 18906 ] final  165.80 input   99.08 | X-H torsion
[ 19025 18997 18998 18999 ] final   23.30 input  121.68 | X-H torsion
[ 17185 17170 17171 17172 ] final -102.71 input   47.05 | X-H torsion
[ 17233 17212 17213 17214 ] final -126.11 input  118.29 | X-H torsion
[ 18820 18805 18806 18807 ] final  110.88 input  116.09 | X-H torsion
[ 19094 19049 19050 19051 ] final -134.17 input   88.91 | X-H torsion
[ 18486 18441 18442 18443 ] final   58.82 input  100.68 | X-H torsion
[ 17293 17275 17276 17277 ] final -172.05 input   51.25 | X-H torsion
[ 18289 18267 18268 18269 ] final  155.72 input   31.65 | X-H torsion
[ 18324 18309 18310 18311 ] final   28.74 input   53.83 | X-H torsion
[ 18399 18347 18348 18349 ] final  171.37 input   27.99 | X-H torsion
[ 7521 7509 7510 7511 ] final  -54.28 input   80.33 | X-H torsion
[ 7486 7448 7449 7450 ] final  151.43 input   99.31 | X-H torsion
[ 18600 18585 18586 18587 ] final  -58.62 input  129.83 | X-H torsion
[ 10110 10088 10087 10084 ] final -112.76 input   59.98 | X-H torsion
[ 18293 18272 18271 18268 ] final -114.20 input   59.99 | X-H torsion
[ 18650 18622 18620 18617 ] final  -59.48 input   59.97 | X-H torsion
[ 18866 18836 18837 18838 ] final  -21.87 input   87.55 | X-H torsion
[ 22436 22408 22409 22410 ] final  -46.21 input   59.22 | X-H torsion
[ 10146 10126 10127 10128 ] final  110.80 input   20.82 | X-H torsion
[ 18225 18192 18193 18194 ] final   66.28 input   40.98 | X-H torsion
[ 11813 11769 11770 11771 ] final   30.77 input   85.42 | X-H torsion
[ 16969 16933 16934 16935 ] final -148.87 input   88.91 | X-H torsion
[ 27198 18524 18523 18522 ] final  140.44 input    0.00 | X-H torsion
[ 27200 18619 18618 18617 ] final   29.78 input    0.00 | X-H torsion
[ 27203 18677 18676 18675 ] final -118.74 input    0.00 | X-H torsion
[ 27223 17119 17118 17117 ] final   -7.60 input    0.00 | X-H torsion
[ 27227 11596 11595 11594 ] final -154.01 input   -0.00 | X-H torsion
[ 27231 17044 17043 17042 ] final   81.13 input    0.00 | X-H torsion
[ 27233 18736 18735 18734 ] final  161.22 input   -0.00 | X-H torsion
[ 27235 18588 18587 18586 ] final  -20.19 input    0.00 | X-H torsion
[ 27238 18907 18906 18905 ] final -131.37 input    0.00 | X-H torsion
[ 27240 19000 18999 18998 ] final   95.07 input    0.00 | X-H torsion
[ 27243 17173 17172 17171 ] final  -26.80 input    0.00 | X-H torsion
[ 27245 18350 18349 18348 ] final -147.13 input    0.00 | X-H torsion
[ 27248 11406 11405 11404 ] final  135.52 input   -0.00 | X-H torsion
[ 27250 18195 18194 18193 ] final   96.12 input    0.00 | X-H torsion
[ 27254 17215 17214 17213 ] final   37.21 input   -0.00 | X-H torsion
[ 27260 18312 18311 18310 ] final   45.58 input   -0.00 | X-H torsion
[ 27262 18444 18443 18442 ] final   48.98 input    0.00 | X-H torsion
[ 27265 18270 18269 18268 ] final -147.49 input    0.00 | X-H torsion
[ 27273 16936 16935 16934 ] final   -6.20 input   -0.00 | X-H torsion

> <Gold.Protein.ActiveResidues>
 TRP414  CYS420  VAL421  GLY422  LEU460  SER462  ALA463  SER482  GLN483  ILE485 
 ARG486  TYR487  ASP500  ASN503  TRP566  TYR567  LEU569  PRO570  ALA571  VAL572 
 SER573  ASN574  PHE589  SER590  GLY591  TRP592  TYR593  MET594  GLY595  THR596 
 GLU597  ILE598  GLY599  VAL600  ARG601  ASP602  TYR603  ARG608  ILE653  VAL654 
 TRP683  PRO687  HEM750  H4B760 

> <Gold.Protein.RotatedAtoms>
  195.6952   12.1715   53.7449 H   0  0  0  0  0  0  0  0  0  0  0  0  # atno 7486 bound_to 7448
  196.0567    8.8653   54.6490 H   0  0  0  0  0  0  0  0  0  0  0  0  # atno 7521 bound_to 7509
  189.7939    2.8317   50.8642 H   0  0  0  0  0  0  0  0  0  0  0  0  # atno 10110 bound_to 10088
  186.6956    1.5712   47.4952 H   0  0  0  0  0  0  0  0  0  0  0  0  # atno 10146 bound_to 10126
  176.4344   17.7341   47.1131 H   0  0  0  0  0  0  0  0  0  0  0  0  # atno 11813 bound_to 11769
  175.2870   12.7356   53.6156 H   0  0  0  0  0  0  0  0  0  0  0  0  # atno 16969 bound_to 16933
  180.4999   15.5192   50.3040 H   0  0  0  0  0  0  0  0  0  0  0  0  # atno 16977 bound_to 16944
  183.9873    9.9389   48.1040 H   0  0  0  0  0  0  0  0  0  0  0  0  # atno 17185 bound_to 17170
  184.7849   10.9106   45.7968 H   0  0  0  0  0  0  0  0  0  0  0  0  # atno 17233 bound_to 17212
  185.3037   11.4792   42.7808 H   0  0  0  0  0  0  0  0  0  0  0  0  # atno 17293 bound_to 17275
  187.2331    8.1747   42.6948 H   0  0  0  0  0  0  0  0  0  0  0  0  # atno 18225 bound_to 18192
  186.3594    5.9673   45.1639 H   0  0  0  0  0  0  0  0  0  0  0  0  # atno 18289 bound_to 18267
  184.0576    4.4444   46.1193 H   0  0  0  0  0  0  0  0  0  0  0  0  # atno 18293 bound_to 18272
  186.4523    6.6357   49.6600 H   0  0  0  0  0  0  0  0  0  0  0  0  # atno 18324 bound_to 18309
  186.3484    5.1067   52.4356 H   0  0  0  0  0  0  0  0  0  0  0  0  # atno 18399 bound_to 18347
  184.7051    7.6665   55.8521 H   0  0  0  0  0  0  0  0  0  0  0  0  # atno 18486 bound_to 18441
  182.1627   14.5638   52.1554 H   0  0  0  0  0  0  0  0  0  0  0  0  # atno 18494 bound_to 18452
  187.0469   11.3827   56.2003 H   0  0  0  0  0  0  0  0  0  0  0  0  # atno 18554 bound_to 18521
  186.4572   12.2884   58.9973 H   0  0  0  0  0  0  0  0  0  0  0  0  # atno 18600 bound_to 18585
  188.9803   15.2762   59.9181 H   0  0  0  0  0  0  0  0  0  0  0  0  # atno 18650 bound_to 18622
  187.0878   16.7626   58.3686 H   0  0  0  0  0  0  0  0  0  0  0  0  # atno 18707 bound_to 18674
  184.4012   16.9301   56.4528 H   0  0  0  0  0  0  0  0  0  0  0  0  # atno 18768 bound_to 18733
  183.2001   16.7694   59.5946 H   0  0  0  0  0  0  0  0  0  0  0  0  # atno 18820 bound_to 18805
  183.5054   19.6717   59.5482 H   0  0  0  0  0  0  0  0  0  0  0  0  # atno 18866 bound_to 18836
  185.9825   20.7263   58.0569 H   0  0  0  0  0  0  0  0  0  0  0  0  # atno 18950 bound_to 18904
  183.1514   20.8917   56.4499 H   0  0  0  0  0  0  0  0  0  0  0  0  # atno 19025 bound_to 18997
  180.4426   21.0061   56.0705 H   0  0  0  0  0  0  0  0  0  0  0  0  # atno 19094 bound_to 19049
  185.5772    7.9605   60.7414 H   0  0  0  0  0  0  0  0  0  0  0  0  # atno 22436 bound_to 22408
  179.9468   15.3879   48.7795 LP  0  0  0  0  0  0  0  0  0  0  0  0  # atno 27193 bound_to 16944
  181.0959   14.3641   49.3254 LP  0  0  0  0  0  0  0  0  0  0  0  0  # atno 27194 bound_to 16944
  180.9150   13.5569   51.8756 LP  0  0  0  0  0  0  0  0  0  0  0  0  # atno 27195 bound_to 18452
  182.3262   13.3536   51.0795 LP  0  0  0  0  0  0  0  0  0  0  0  0  # atno 27196 bound_to 18452
  186.9551    9.7827   56.9016 LP  0  0  0  0  0  0  0  0  0  0  0  0  # atno 27197 bound_to 18521
  185.3492   13.5995   57.9720 LP  0  0  0  0  0  0  0  0  0  0  0  0  # atno 27198 bound_to 18524
  186.9562   13.7126   57.3359 LP  0  0  0  0  0  0  0  0  0  0  0  0  # atno 27199 bound_to 18524
  186.5118   19.0140   59.1883 LP  0  0  0  0  0  0  0  0  0  0  0  0  # atno 27200 bound_to 18619
  185.4889   18.5423   57.8726 LP  0  0  0  0  0  0  0  0  0  0  0  0  # atno 27201 bound_to 18619
  186.0252   15.3847   58.2279 LP  0  0  0  0  0  0  0  0  0  0  0  0  # atno 27202 bound_to 18674
  184.1328   19.0038   56.2798 LP  0  0  0  0  0  0  0  0  0  0  0  0  # atno 27203 bound_to 18677
  184.5907   18.2019   54.8144 LP  0  0  0  0  0  0  0  0  0  0  0  0  # atno 27204 bound_to 18677
  184.1443   15.7970   57.7625 LP  0  0  0  0  0  0  0  0  0  0  0  0  # atno 27209 bound_to 18733
  184.2584   20.9811   58.1612 LP  0  0  0  0  0  0  0  0  0  0  0  0  # atno 27210 bound_to 18904
  183.8987   20.5782   54.9028 LP  0  0  0  0  0  0  0  0  0  0  0  0  # atno 27211 bound_to 18997
  184.9916    8.4892   49.5778 LP  0  0  0  0  0  0  0  0  0  0  0  0  # atno 27223 bound_to 17119
  185.0232    8.1959   47.8711 LP  0  0  0  0  0  0  0  0  0  0  0  0  # atno 27224 bound_to 17119
  182.4843   10.3804   47.3290 LP  0  0  0  0  0  0  0  0  0  0  0  0  # atno 27225 bound_to 17170
  185.8956    9.7291   45.1382 LP  0  0  0  0  0  0  0  0  0  0  0  0  # atno 27226 bound_to 17212
  179.0247   13.9781   47.5725 LP  0  0  0  0  0  0  0  0  0  0  0  0  # atno 27227 bound_to 11596
  179.6945   12.6508   46.6840 LP  0  0  0  0  0  0  0  0  0  0  0  0  # atno 27228 bound_to 11596
  179.9073   10.1537   49.4746 LP  0  0  0  0  0  0  0  0  0  0  0  0  # atno 27231 bound_to 17044
  180.7406    9.2765   48.2352 LP  0  0  0  0  0  0  0  0  0  0  0  0  # atno 27232 bound_to 17044
  181.3715   19.6092   58.7942 LP  0  0  0  0  0  0  0  0  0  0  0  0  # atno 27233 bound_to 18736
  181.6878   19.3761   57.1073 LP  0  0  0  0  0  0  0  0  0  0  0  0  # atno 27234 bound_to 18736
  183.4563   14.9337   59.7101 LP  0  0  0  0  0  0  0  0  0  0  0  0  # atno 27235 bound_to 18588
  184.3277   16.3575   60.1721 LP  0  0  0  0  0  0  0  0  0  0  0  0  # atno 27236 bound_to 18588
  182.2362   17.8602   58.6215 LP  0  0  0  0  0  0  0  0  0  0  0  0  # atno 27237 bound_to 18805
  182.3734   23.2289   55.8072 LP  0  0  0  0  0  0  0  0  0  0  0  0  # atno 27238 bound_to 18907
  183.8458   23.6510   54.9987 LP  0  0  0  0  0  0  0  0  0  0  0  0  # atno 27239 bound_to 18907
  178.9645   21.8586   54.8015 LP  0  0  0  0  0  0  0  0  0  0  0  0  # atno 27240 bound_to 19000
  180.0782   23.1801   54.6861 LP  0  0  0  0  0  0  0  0  0  0  0  0  # atno 27241 bound_to 19000
  181.7212   21.4831   57.1633 LP  0  0  0  0  0  0  0  0  0  0  0  0  # atno 27242 bound_to 19049
  182.7560   10.0537   43.8612 LP  0  0  0  0  0  0  0  0  0  0  0  0  # atno 27243 bound_to 17173
  183.6373   11.5411   43.7556 LP  0  0  0  0  0  0  0  0  0  0  0  0  # atno 27244 bound_to 17173
  187.6843    8.6063   54.9805 LP  0  0  0  0  0  0  0  0  0  0  0  0  # atno 27245 bound_to 18350
  187.6385    7.9022   53.3987 LP  0  0  0  0  0  0  0  0  0  0  0  0  # atno 27246 bound_to 18350
  185.3772    8.0875   54.2948 LP  0  0  0  0  0  0  0  0  0  0  0  0  # atno 27247 bound_to 18441
  184.9170   14.3341   43.5186 LP  0  0  0  0  0  0  0  0  0  0  0  0  # atno 27248 bound_to 11406
  185.2726   14.3872   41.8243 LP  0  0  0  0  0  0  0  0  0  0  0  0  # atno 27249 bound_to 11406
  185.7174    8.1787   45.1356 LP  0  0  0  0  0  0  0  0  0  0  0  0  # atno 27250 bound_to 18195
  187.3558    8.5785   45.5305 LP  0  0  0  0  0  0  0  0  0  0  0  0  # atno 27251 bound_to 18195
  186.5204    9.3793   43.1714 LP  0  0  0  0  0  0  0  0  0  0  0  0  # atno 27254 bound_to 17215
  187.0654   10.0696   41.6793 LP  0  0  0  0  0  0  0  0  0  0  0  0  # atno 27255 bound_to 17215
  185.9030   12.9585   42.0820 LP  0  0  0  0  0  0  0  0  0  0  0  0  # atno 27256 bound_to 17275
  187.8237    5.3618   45.8983 LP  0  0  0  0  0  0  0  0  0  0  0  0  # atno 27257 bound_to 18267
  187.3349    5.4493   48.7216 LP  0  0  0  0  0  0  0  0  0  0  0  0  # atno 27258 bound_to 18309
  187.1840    6.6412   52.5769 LP  0  0  0  0  0  0  0  0  0  0  0  0  # atno 27259 bound_to 18347
  184.8793    3.9128   51.2992 LP  0  0  0  0  0  0  0  0  0  0  0  0  # atno 27260 bound_to 18312
  184.2009    5.4536   51.7064 LP  0  0  0  0  0  0  0  0  0  0  0  0  # atno 27261 bound_to 18312
  186.2280    7.8982   57.5587 LP  0  0  0  0  0  0  0  0  0  0  0  0  # atno 27262 bound_to 18444
  186.1762    9.1283   58.7769 LP  0  0  0  0  0  0  0  0  0  0  0  0  # atno 27263 bound_to 18444
  194.5058    9.3960   54.0543 LP  0  0  0  0  0  0  0  0  0  0  0  0  # atno 27264 bound_to 7509
  187.2879    3.3618   48.9020 LP  0  0  0  0  0  0  0  0  0  0  0  0  # atno 27265 bound_to 18270
  187.7210    3.8135   47.2869 LP  0  0  0  0  0  0  0  0  0  0  0  0  # atno 27266 bound_to 18270
  195.8466   10.5609   53.0745 LP  0  0  0  0  0  0  0  0  0  0  0  0  # atno 27267 bound_to 7448
  186.7504   11.7048   60.6178 LP  0  0  0  0  0  0  0  0  0  0  0  0  # atno 27268 bound_to 18585
  190.0456    1.3454   51.4772 LP  0  0  0  0  0  0  0  0  0  0  0  0  # atno 27269 bound_to 10088
  188.5297    1.9441   51.3763 LP  0  0  0  0  0  0  0  0  0  0  0  0  # atno 27270 bound_to 10088
  183.9602    4.0833   47.7028 LP  0  0  0  0  0  0  0  0  0  0  0  0  # atno 27271 bound_to 18272
  185.3851    3.9455   46.9170 LP  0  0  0  0  0  0  0  0  0  0  0  0  # atno 27272 bound_to 18272
  178.5192   11.7482   53.8863 LP  0  0  0  0  0  0  0  0  0  0  0  0  # atno 27273 bound_to 16936
  179.1380   10.2050   54.3715 LP  0  0  0  0  0  0  0  0  0  0  0  0  # atno 27274 bound_to 16936

> <Gold.Score>
     Fitness  S(hb_ext) S(vdw_ext)  S(hb_int)    S(int)      intcor
     32.35       5.73      20.50       0.00      -1.56      -0.85

> <Gold.Goldscore.Fitness>
32.3503

> <Gold.Goldscore.Internal.Vdw>
-1.8653

> <Gold.Goldscore.Internal.Torsion>
-0.5496

> <Gold.Goldscore.External.Vdw>
20.4991

> <Gold.Goldscore.Internal.HBond>
0.0000

> <Gold.Goldscore.External.HBond>
5.7287

> <Gold.Goldscore.Internal.Correction>
-0.8503

> <Gold.Goldscore.Hbonds>
donor molecule, donor type, donor heavy atom, donor atom, acceptor molecule, acceptor atom, score
      P1  H 11682 11730       L1    17  0.51
      P1  H 19334 19372       L1    17  0.24
      L1  H    10    23       P1 19004  0.21

> <Gold.Goldscore.Internal.Vdw.Weighted>
-1.8653

> <Gold.Goldscore.Internal.Torsion.Weighted>
-0.5496

> <Gold.Goldscore.External.Vdw.Weighted>
28.1862

> <Gold.Goldscore.Internal.HBond.Weighted>
0.0000

> <Gold.Goldscore.External.HBond.Weighted>
5.7287

> <Gold.Goldscore.Internal.Correction.Weighted>
-0.8503

> <Gold.Rescore>
     Score     S(PLP)   S(hbond)     S(cho)   S(metal)  DE(clash)   DE(tors)     intcor
     24.18     -19.05       2.43       0.00       0.00       2.13       0.02       ----

> <Gold.PLP.Fitness>
24.1845

> <Gold.PLP.PLP>
-19.0509

> <Gold.PLP.part.hbond>
-4.8884

> <Gold.PLP.part.metal>
0.0000

> <Gold.PLP.part.buried>
11.6610

> <Gold.PLP.part.nonpolar>
-29.1040

> <Gold.PLP.part.repulsive>
2.1626

> <Gold.PLP.ligand.clash>
2.1288

> <Gold.PLP.ligand.torsion>
0.0179

> <Gold.PLP.Chemscore.Hbond>
2.4328

> <Gold.PLP.Chemscore.CHOScore>
0.0000

> <Gold.PLP.Chemscore.Metal>
0.0000

> <Gold.Chemscore.Hbonds>
donor molecule, donor type, donor heavy atom, donor atom, acceptor molecule, acceptor atom, score
      L1  H    10    23       P1 19004  0.69
      P1  H 11682 11730       L1    17  1.00
      P1  H 19334 19372       L1    17  0.89

> <Gold.PLP.Chemscore.Internal.Correction>
   9.000000E+99

