#       Name:                CT1002167954
#       Creating user name   hitesit
#       Creation time:       Sun Apr 16 22:56:33 2023


#       File generated by GOLD software.
#

@<TRIPOS>MOLECULE
CT1002167954|ligand_prepared|mol2|1|dock10
    29    30     1
SMALL
NO_CHARGES


@<TRIPOS>ATOM
      1 C1         186.9339  14.1266  49.9412 C.3            1 RES1               0.0000
      2 C2         187.5011  12.8805  50.6515 C.ar           1 RES1               0.0000
      3 C3         185.6155  13.6947  49.3060 C.2            1 RES1               0.0000
      4 C4         186.7853  15.1989  51.0148 C.2            1 RES1               0.0000
      5 C5         187.8539  14.6860  48.8312 C.3            1 RES1               0.0000
      6 C6         188.7912  12.4353  50.3790 C.ar           1 RES1               0.0000
      7 C7         186.7485  12.1686  51.5818 C.ar           1 RES1               0.0000
      8 N8         184.4613  14.1242  49.8919 N.am           1 RES1               0.0000
      9 O9         185.5885  12.9560  48.3293 O.2            1 RES1               0.0000
     10 N10        185.5201  15.6185  51.3325 N.am           1 RES1               0.0000
     11 O11        187.7515  15.6723  51.6003 O.2            1 RES1               0.0000
     12 C12        187.2389  15.8335  48.0457 C.3            1 RES1               0.0000
     13 C13        189.3113  11.3207  51.0157 C.ar           1 RES1               0.0000
     14 C14        187.2705  11.0541  52.2172 C.ar           1 RES1               0.0000
     15 C15        184.3496  15.1077  50.8415 C.2            1 RES1               0.0000
     16 C16        188.5516  10.6296  51.9354 C.ar           1 RES1               0.0000
     17 O17        183.2484  15.5001  51.2165 O.2            1 RES1               0.0000
     18 H18        188.7888  15.0324  49.2888 H              1 RES1               0.0000
     19 H19        188.1015  13.8747  48.1356 H              1 RES1               0.0000
     20 H20        189.4030  12.9649  49.6563 H              1 RES1               0.0000
     21 H21        185.7379  12.4837  51.8184 H              1 RES1               0.0000
     22 H22        183.6017  13.6722  49.5967 H              1 RES1               0.0000
     23 H23        185.4439  16.3825  51.9965 H              1 RES1               0.0000
     24 H24        187.9256  16.1885  47.2800 H              1 RES1               0.0000
     25 H25        186.3200  15.5173  47.5564 H              1 RES1               0.0000
     26 H26        187.0032  16.6681  48.7028 H              1 RES1               0.0000
     27 H27        190.3195  10.9899  50.7894 H              1 RES1               0.0000
     28 H28        186.6688  10.5129  52.9399 H              1 RES1               0.0000
     29 H29        188.9594   9.7567  52.4343 H              1 RES1               0.0000
@<TRIPOS>BOND
    1    1    2 1     
    2    1    3 1     
    3    1    4 1     
    4    1    5 1     
    5    2    6 ar    
    6    2    7 ar    
    7    3    8 1     
    8    3    9 2     
    9    4   10 1     
   10    4   11 2     
   11    5   12 1     
   12    5   18 1     
   13    5   19 1     
   14    6   13 ar    
   15    6   20 1     
   16    7   14 ar    
   17    7   21 1     
   18    8   15 1     
   19    8   22 1     
   20   10   15 1     
   21   10   23 1     
   22   12   24 1     
   23   12   25 1     
   24   12   26 1     
   25   13   16 ar    
   26   13   27 1     
   27   14   16 ar    
   28   14   28 1     
   29   15   17 2     
   30   16   29 1     
@<TRIPOS>SUBSTRUCTURE
      1 RES1           1
@<TRIPOS>SET
DONOR_HYDROGENS      STATIC     ATOMS    <user>   **** ""
2 22 23
ATOM$RED        STATIC     ATOMS    COLORGROUP SYSTEM
2 22 23
@<TRIPOS>COMMENT
> <Gold.Version>
2022.3.0

> <Gold.Id.Protein>
unknown|4d1n_clean|pdb

> <Gold.Protein.RotatedTorsions>
[ 16977 16944 16943 16941 ] final -176.60 input   59.98 | X-H torsion
[ 18494 18452 18451 18449 ] final -134.41 input   59.98 | X-H torsion
[ 18554 18521 18522 18523 ] final -177.73 input   91.55 | X-H torsion
[ 18707 18674 18675 18676 ] final  -36.17 input  121.65 | X-H torsion
[ 18768 18733 18734 18735 ] final  114.38 input   95.18 | X-H torsion
[ 18950 18904 18905 18906 ] final   47.89 input   99.08 | X-H torsion
[ 19025 18997 18998 18999 ] final   61.98 input  121.68 | X-H torsion
[ 17185 17170 17171 17172 ] final  134.98 input   47.05 | X-H torsion
[ 17233 17212 17213 17214 ] final  -88.92 input  118.29 | X-H torsion
[ 18820 18805 18806 18807 ] final  -81.45 input  116.09 | X-H torsion
[ 19094 19049 19050 19051 ] final  164.10 input   88.91 | X-H torsion
[ 18486 18441 18442 18443 ] final   73.25 input  100.68 | X-H torsion
[ 17293 17275 17276 17277 ] final   47.70 input   51.25 | X-H torsion
[ 18289 18267 18268 18269 ] final  -92.41 input   31.65 | X-H torsion
[ 18324 18309 18310 18311 ] final   30.21 input   53.83 | X-H torsion
[ 18399 18347 18348 18349 ] final  102.72 input   27.99 | X-H torsion
[ 7521 7509 7510 7511 ] final   29.61 input   80.33 | X-H torsion
[ 7486 7448 7449 7450 ] final  103.67 input   99.31 | X-H torsion
[ 18600 18585 18586 18587 ] final  -70.00 input  129.83 | X-H torsion
[ 10110 10088 10087 10084 ] final  -13.20 input   59.98 | X-H torsion
[ 18293 18272 18271 18268 ] final    1.11 input   59.99 | X-H torsion
[ 18650 18622 18620 18617 ] final   55.68 input   59.97 | X-H torsion
[ 18866 18836 18837 18838 ] final -113.49 input   87.55 | X-H torsion
[ 22436 22408 22409 22410 ] final -157.32 input   59.22 | X-H torsion
[ 10146 10126 10127 10128 ] final  -31.31 input   20.82 | X-H torsion
[ 18225 18192 18193 18194 ] final  -53.55 input   40.98 | X-H torsion
[ 11813 11769 11770 11771 ] final  137.25 input   85.42 | X-H torsion
[ 16969 16933 16934 16935 ] final -111.62 input   88.91 | X-H torsion
[ 27198 18524 18523 18522 ] final   90.37 input    0.00 | X-H torsion
[ 27200 18619 18618 18617 ] final   46.32 input    0.00 | X-H torsion
[ 27203 18677 18676 18675 ] final  -21.27 input    0.00 | X-H torsion
[ 27223 17119 17118 17117 ] final -170.38 input    0.00 | X-H torsion
[ 27227 11596 11595 11594 ] final -133.71 input   -0.00 | X-H torsion
[ 27231 17044 17043 17042 ] final   68.51 input    0.00 | X-H torsion
[ 27233 18736 18735 18734 ] final   95.34 input   -0.00 | X-H torsion
[ 27235 18588 18587 18586 ] final  133.20 input    0.00 | X-H torsion
[ 27238 18907 18906 18905 ] final -135.48 input    0.00 | X-H torsion
[ 27240 19000 18999 18998 ] final  144.30 input    0.00 | X-H torsion
[ 27243 17173 17172 17171 ] final -158.68 input    0.00 | X-H torsion
[ 27245 18350 18349 18348 ] final -142.95 input    0.00 | X-H torsion
[ 27248 11406 11405 11404 ] final -120.68 input   -0.00 | X-H torsion
[ 27250 18195 18194 18193 ] final  -68.98 input    0.00 | X-H torsion
[ 27254 17215 17214 17213 ] final   36.54 input   -0.00 | X-H torsion
[ 27260 18312 18311 18310 ] final -153.92 input   -0.00 | X-H torsion
[ 27262 18444 18443 18442 ] final -125.21 input    0.00 | X-H torsion
[ 27265 18270 18269 18268 ] final   46.73 input    0.00 | X-H torsion
[ 27273 16936 16935 16934 ] final  -49.38 input   -0.00 | X-H torsion

> <Gold.Protein.ActiveResidues>
 TRP414  CYS420  VAL421  GLY422  LEU460  SER462  ALA463  SER482  GLN483  ILE485 
 ARG486  TYR487  ASP500  ASN503  TRP566  TYR567  LEU569  PRO570  ALA571  VAL572 
 SER573  ASN574  PHE589  SER590  GLY591  TRP592  TYR593  MET594  GLY595  THR596 
 GLU597  ILE598  GLY599  VAL600  ARG601  ASP602  TYR603  ARG608  ILE653  VAL654 
 TRP683  PRO687  HEM750  H4B760 

> <Gold.Protein.RotatedAtoms>
  195.0835   11.7894   53.7619 H   0  0  0  0  0  0  0  0  0  0  0  0  # atno 7486 bound_to 7448
  195.5968    8.8870   53.5717 H   0  0  0  0  0  0  0  0  0  0  0  0  # atno 7521 bound_to 7509
  188.5439    2.2488   51.2416 H   0  0  0  0  0  0  0  0  0  0  0  0  # atno 10110 bound_to 10088
  188.2153    2.0973   47.0606 H   0  0  0  0  0  0  0  0  0  0  0  0  # atno 10146 bound_to 10126
  175.9799   16.8772   48.1555 H   0  0  0  0  0  0  0  0  0  0  0  0  # atno 11813 bound_to 11769
  175.4131   12.4945   54.1130 H   0  0  0  0  0  0  0  0  0  0  0  0  # atno 16969 bound_to 16933
  179.9064   15.8011   49.5265 H   0  0  0  0  0  0  0  0  0  0  0  0  # atno 16977 bound_to 16944
  182.5090    9.6460   47.7429 H   0  0  0  0  0  0  0  0  0  0  0  0  # atno 17185 bound_to 17170
  184.5427   10.6663   45.3459 H   0  0  0  0  0  0  0  0  0  0  0  0  # atno 17233 bound_to 17212
  185.3247   13.0158   42.1985 H   0  0  0  0  0  0  0  0  0  0  0  0  # atno 17293 bound_to 17275
  186.0074    7.2900   42.6194 H   0  0  0  0  0  0  0  0  0  0  0  0  # atno 18225 bound_to 18192
  187.6990    6.2987   45.6455 H   0  0  0  0  0  0  0  0  0  0  0  0  # atno 18289 bound_to 18267
  185.3803    3.9670   46.8430 H   0  0  0  0  0  0  0  0  0  0  0  0  # atno 18293 bound_to 18272
  186.4717    6.6475   49.6628 H   0  0  0  0  0  0  0  0  0  0  0  0  # atno 18324 bound_to 18309
  187.1135    5.2816   53.0701 H   0  0  0  0  0  0  0  0  0  0  0  0  # atno 18399 bound_to 18347
  184.5163    7.7373   55.7584 H   0  0  0  0  0  0  0  0  0  0  0  0  # atno 18486 bound_to 18441
  180.9748   13.9016   52.1369 H   0  0  0  0  0  0  0  0  0  0  0  0  # atno 18494 bound_to 18452
  187.6793   10.0000   56.5464 H   0  0  0  0  0  0  0  0  0  0  0  0  # atno 18554 bound_to 18521
  186.3432   12.1558   58.9888 H   0  0  0  0  0  0  0  0  0  0  0  0  # atno 18600 bound_to 18585
  188.8678   16.3227   58.7393 H   0  0  0  0  0  0  0  0  0  0  0  0  # atno 18650 bound_to 18622
  186.1076   16.7653   58.5994 H   0  0  0  0  0  0  0  0  0  0  0  0  # atno 18707 bound_to 18674
  184.0314   15.5387   57.3845 H   0  0  0  0  0  0  0  0  0  0  0  0  # atno 18768 bound_to 18733
  182.0708   17.7780   58.6747 H   0  0  0  0  0  0  0  0  0  0  0  0  # atno 18820 bound_to 18805
  183.5295   19.7374   60.8162 H   0  0  0  0  0  0  0  0  0  0  0  0  # atno 18866 bound_to 18836
  184.5829   20.2229   57.7996 H   0  0  0  0  0  0  0  0  0  0  0  0  # atno 18950 bound_to 18904
  183.1753   20.3148   56.3599 H   0  0  0  0  0  0  0  0  0  0  0  0  # atno 19025 bound_to 18997
  180.6787   20.4776   56.7703 H   0  0  0  0  0  0  0  0  0  0  0  0  # atno 19094 bound_to 19049
  186.0364    6.6830   60.2662 H   0  0  0  0  0  0  0  0  0  0  0  0  # atno 22436 bound_to 22408
  180.5958   14.6016   48.6703 LP  0  0  0  0  0  0  0  0  0  0  0  0  # atno 27193 bound_to 16944
  181.0447   14.8665   50.2178 LP  0  0  0  0  0  0  0  0  0  0  0  0  # atno 27194 bound_to 16944
  181.9436   13.1403   51.0735 LP  0  0  0  0  0  0  0  0  0  0  0  0  # atno 27195 bound_to 18452
  182.4934   14.4368   51.9001 LP  0  0  0  0  0  0  0  0  0  0  0  0  # atno 27196 bound_to 18452
  186.3407   11.1260   56.5653 LP  0  0  0  0  0  0  0  0  0  0  0  0  # atno 27197 bound_to 18521
  185.4850   13.1695   57.3942 LP  0  0  0  0  0  0  0  0  0  0  0  0  # atno 27198 bound_to 18524
  186.8204   14.1426   57.9137 LP  0  0  0  0  0  0  0  0  0  0  0  0  # atno 27199 bound_to 18524
  186.6808   19.0256   59.0057 LP  0  0  0  0  0  0  0  0  0  0  0  0  # atno 27200 bound_to 18619
  185.3199   18.5308   58.0553 LP  0  0  0  0  0  0  0  0  0  0  0  0  # atno 27201 bound_to 18619
  186.9887   15.3820   58.0010 LP  0  0  0  0  0  0  0  0  0  0  0  0  # atno 27202 bound_to 18674
  185.2015   18.8140   55.5609 LP  0  0  0  0  0  0  0  0  0  0  0  0  # atno 27203 bound_to 18677
  183.5219   18.3917   55.5333 LP  0  0  0  0  0  0  0  0  0  0  0  0  # atno 27204 bound_to 18677
  184.5018   17.1420   56.8619 LP  0  0  0  0  0  0  0  0  0  0  0  0  # atno 27209 bound_to 18733
  185.6328   21.4753   58.4139 LP  0  0  0  0  0  0  0  0  0  0  0  0  # atno 27210 bound_to 18904
  183.8752   21.1433   54.9909 LP  0  0  0  0  0  0  0  0  0  0  0  0  # atno 27211 bound_to 18997
  185.2011    8.3842   47.8814 LP  0  0  0  0  0  0  0  0  0  0  0  0  # atno 27223 bound_to 17119
  184.8137    8.3010   49.5675 LP  0  0  0  0  0  0  0  0  0  0  0  0  # atno 27224 bound_to 17119
  183.9267   10.6662   47.6813 LP  0  0  0  0  0  0  0  0  0  0  0  0  # atno 27225 bound_to 17170
  186.1301    9.9655   45.5747 LP  0  0  0  0  0  0  0  0  0  0  0  0  # atno 27226 bound_to 17212
  178.9529   13.7471   47.7586 LP  0  0  0  0  0  0  0  0  0  0  0  0  # atno 27227 bound_to 11596
  179.7663   12.8818   46.4979 LP  0  0  0  0  0  0  0  0  0  0  0  0  # atno 27228 bound_to 11596
  179.7776   10.0156   49.4559 LP  0  0  0  0  0  0  0  0  0  0  0  0  # atno 27231 bound_to 17044
  180.8703    9.4146   48.2539 LP  0  0  0  0  0  0  0  0  0  0  0  0  # atno 27232 bound_to 17044
  180.7547   19.2048   58.2086 LP  0  0  0  0  0  0  0  0  0  0  0  0  # atno 27233 bound_to 18736
  182.3047   19.7806   57.6929 LP  0  0  0  0  0  0  0  0  0  0  0  0  # atno 27234 bound_to 18736
  184.1668   16.2332   60.5149 LP  0  0  0  0  0  0  0  0  0  0  0  0  # atno 27235 bound_to 18588
  183.6172   15.0581   59.3673 LP  0  0  0  0  0  0  0  0  0  0  0  0  # atno 27236 bound_to 18588
  183.3260   16.8869   59.5092 LP  0  0  0  0  0  0  0  0  0  0  0  0  # atno 27237 bound_to 18805
  182.3518   23.2089   55.7526 LP  0  0  0  0  0  0  0  0  0  0  0  0  # atno 27238 bound_to 18907
  183.8675   23.6710   55.0533 LP  0  0  0  0  0  0  0  0  0  0  0  0  # atno 27239 bound_to 18907
  178.9389   22.3224   55.3537 LP  0  0  0  0  0  0  0  0  0  0  0  0  # atno 27240 bound_to 19000
  180.1038   22.7163   54.1339 LP  0  0  0  0  0  0  0  0  0  0  0  0  # atno 27241 bound_to 19000
  181.4910   21.9984   56.4810 LP  0  0  0  0  0  0  0  0  0  0  0  0  # atno 27242 bound_to 19049
  183.8754   11.0341   43.3255 LP  0  0  0  0  0  0  0  0  0  0  0  0  # atno 27243 bound_to 17173
  182.5179   10.5607   44.2914 LP  0  0  0  0  0  0  0  0  0  0  0  0  # atno 27244 bound_to 17173
  187.7069    8.5513   55.0018 LP  0  0  0  0  0  0  0  0  0  0  0  0  # atno 27245 bound_to 18350
  187.6158    7.9573   53.3774 LP  0  0  0  0  0  0  0  0  0  0  0  0  # atno 27246 bound_to 18350
  185.5613    8.0184   54.3862 LP  0  0  0  0  0  0  0  0  0  0  0  0  # atno 27247 bound_to 18441
  184.8170   13.5947   42.3780 LP  0  0  0  0  0  0  0  0  0  0  0  0  # atno 27248 bound_to 11406
  185.3726   15.1266   42.9649 LP  0  0  0  0  0  0  0  0  0  0  0  0  # atno 27249 bound_to 11406
  187.3687    8.6174   45.3096 LP  0  0  0  0  0  0  0  0  0  0  0  0  # atno 27250 bound_to 18195
  185.7045    8.1397   45.3565 LP  0  0  0  0  0  0  0  0  0  0  0  0  # atno 27251 bound_to 18195
  186.5291    9.3822   43.1758 LP  0  0  0  0  0  0  0  0  0  0  0  0  # atno 27254 bound_to 17215
  187.0567   10.0667   41.6748 LP  0  0  0  0  0  0  0  0  0  0  0  0  # atno 27255 bound_to 17215
  185.8822   11.4311   42.6608 LP  0  0  0  0  0  0  0  0  0  0  0  0  # atno 27256 bound_to 17275
  186.5112    5.0371   45.4264 LP  0  0  0  0  0  0  0  0  0  0  0  0  # atno 27257 bound_to 18267
  187.3162    5.4380   48.7189 LP  0  0  0  0  0  0  0  0  0  0  0  0  # atno 27258 bound_to 18309
  186.4508    6.4736   51.9688 LP  0  0  0  0  0  0  0  0  0  0  0  0  # atno 27259 bound_to 18347
  184.2015    5.3279   51.9715 LP  0  0  0  0  0  0  0  0  0  0  0  0  # atno 27260 bound_to 18312
  184.8787    4.0385   51.0340 LP  0  0  0  0  0  0  0  0  0  0  0  0  # atno 27261 bound_to 18312
  186.0890    9.1273   58.7679 LP  0  0  0  0  0  0  0  0  0  0  0  0  # atno 27262 bound_to 18444
  186.3153    7.8991   57.5677 LP  0  0  0  0  0  0  0  0  0  0  0  0  # atno 27263 bound_to 18444
  194.9609    9.3745   55.1204 LP  0  0  0  0  0  0  0  0  0  0  0  0  # atno 27264 bound_to 7509
  187.9097    3.8579   47.3784 LP  0  0  0  0  0  0  0  0  0  0  0  0  # atno 27265 bound_to 18270
  187.0992    3.3173   48.8105 LP  0  0  0  0  0  0  0  0  0  0  0  0  # atno 27266 bound_to 18270
  196.4369   10.9296   53.0581 LP  0  0  0  0  0  0  0  0  0  0  0  0  # atno 27267 bound_to 7448
  186.8618   11.8344   60.6260 LP  0  0  0  0  0  0  0  0  0  0  0  0  # atno 27268 bound_to 18585
  190.0807    2.6675   50.9080 LP  0  0  0  0  0  0  0  0  0  0  0  0  # atno 27269 bound_to 10088
  189.7531    1.2090   51.5655 LP  0  0  0  0  0  0  0  0  0  0  0  0  # atno 27270 bound_to 10088
  183.9882    4.4497   46.1527 LP  0  0  0  0  0  0  0  0  0  0  0  0  # atno 27271 bound_to 18272
  184.0248    4.0600   47.7381 LP  0  0  0  0  0  0  0  0  0  0  0  0  # atno 27272 bound_to 18272
  178.8914   11.4929   53.4364 LP  0  0  0  0  0  0  0  0  0  0  0  0  # atno 27273 bound_to 16936
  178.7657   10.4603   54.8213 LP  0  0  0  0  0  0  0  0  0  0  0  0  # atno 27274 bound_to 16936

> <Gold.Score>
     Fitness  S(hb_ext) S(vdw_ext)  S(hb_int)    S(int)      intcor
     43.95       1.43      31.52       0.00      -0.82      -0.76

> <Gold.Goldscore.Fitness>
43.9524

> <Gold.Goldscore.Internal.Vdw>
-1.1603

> <Gold.Goldscore.Internal.Torsion>
-0.4161

> <Gold.Goldscore.External.Vdw>
31.5168

> <Gold.Goldscore.Internal.HBond>
0.0000

> <Gold.Goldscore.External.HBond>
1.4347

> <Gold.Goldscore.Internal.Correction>
-0.7585

> <Gold.Goldscore.Hbonds>
donor molecule, donor type, donor heavy atom, donor atom, acceptor molecule, acceptor atom, score
      P1  H 11457 11491       L1    17  0.26
      L1  H     8    22       P1 11458  0.15

> <Gold.Goldscore.Internal.Vdw.Weighted>
-1.1603

> <Gold.Goldscore.Internal.Torsion.Weighted>
-0.4161

> <Gold.Goldscore.External.Vdw.Weighted>
43.3356

> <Gold.Goldscore.Internal.HBond.Weighted>
0.0000

> <Gold.Goldscore.External.HBond.Weighted>
1.4347

> <Gold.Goldscore.Internal.Correction.Weighted>
-0.7585

> <Gold.Rescore>
     Score     S(PLP)   S(hbond)     S(cho)   S(metal)  DE(clash)   DE(tors)     intcor
    -11.05      12.41       0.53       0.00       0.00       0.00       0.12       ----

> <Gold.PLP.Fitness>
-11.0538

> <Gold.PLP.PLP>
12.4088

> <Gold.PLP.part.hbond>
-3.4744

> <Gold.PLP.part.metal>
0.0000

> <Gold.PLP.part.buried>
40.9734

> <Gold.PLP.part.nonpolar>
-41.8598

> <Gold.PLP.part.repulsive>
15.3761

> <Gold.PLP.ligand.clash>
0.0000

> <Gold.PLP.ligand.torsion>
0.1181

> <Gold.PLP.Chemscore.Hbond>
0.5304

> <Gold.PLP.Chemscore.CHOScore>
0.0000

> <Gold.PLP.Chemscore.Metal>
0.0000

> <Gold.Chemscore.Hbonds>
donor molecule, donor type, donor heavy atom, donor atom, acceptor molecule, acceptor atom, score
      L1  H     8    22       P1 11458  0.59

> <Gold.PLP.Chemscore.Internal.Correction>
   9.000000E+99

