#       Name:                CT1002167954
#       Creating user name   hitesit
#       Creation time:       Sun Apr 16 22:56:27 2023


#       File generated by GOLD software.
#

@<TRIPOS>MOLECULE
CT1002167954|ligand_prepared|mol2|1|dock3
    29    30     1
SMALL
NO_CHARGES


@<TRIPOS>ATOM
      1 C1         186.8582  13.8910  49.9339 C.3            1 RES1               0.0000
      2 C2         187.4049  12.7011  50.7488 C.ar           1 RES1               0.0000
      3 C3         185.6166  13.3796  49.2093 C.2            1 RES1               0.0000
      4 C4         186.5785  15.0034  50.9384 C.2            1 RES1               0.0000
      5 C5         187.8514  14.4363  48.8814 C.3            1 RES1               0.0000
      6 C6         186.6156  12.0795  51.7118 C.ar           1 RES1               0.0000
      7 C7         188.6932  12.2130  50.5474 C.ar           1 RES1               0.0000
      8 N8         184.4010  13.7889  49.6729 N.am           1 RES1               0.0000
      9 O9         185.7013  12.5978  48.2703 O.2            1 RES1               0.0000
     10 N10        185.2763  15.3865  51.1260 N.am           1 RES1               0.0000
     11 O11        187.4723  15.5401  51.5812 O.2            1 RES1               0.0000
     12 C12        187.2941  15.5782  48.0462 C.3            1 RES1               0.0000
     13 C13        187.0957  11.0069  52.4448 C.ar           1 RES1               0.0000
     14 C14        189.1715  11.1404  51.2817 C.ar           1 RES1               0.0000
     15 C15        184.1720  14.8086  50.5614 C.2            1 RES1               0.0000
     16 C16        188.3736  10.5363  52.2300 C.ar           1 RES1               0.0000
     17 O17        183.0290  15.1736  50.8214 O.2            1 RES1               0.0000
     18 H18        188.7557  14.7839  49.3960 H              1 RES1               0.0000
     19 H19        188.1408  13.6174  48.2113 H              1 RES1               0.0000
     20 H20        185.6082  12.4375  51.8964 H              1 RES1               0.0000
     21 H21        189.3391  12.6733  49.8074 H              1 RES1               0.0000
     22 H22        183.5871  13.2907  49.3270 H              1 RES1               0.0000
     23 H23        185.1152  16.1757  51.7437 H              1 RES1               0.0000
     24 H24        188.0309  15.9233  47.3240 H              1 RES1               0.0000
     25 H25        186.4079  15.2605  47.5008 H              1 RES1               0.0000
     26 H26        187.0192  16.4200  48.6784 H              1 RES1               0.0000
     27 H27        186.4642  10.5359  53.1909 H              1 RES1               0.0000
     28 H28        190.1781  10.7738  51.1098 H              1 RES1               0.0000
     29 H29        188.7493   9.6958  52.8041 H              1 RES1               0.0000
@<TRIPOS>BOND
    1    1    2 1     
    2    1    3 1     
    3    1    4 1     
    4    1    5 1     
    5    2    6 ar    
    6    2    7 ar    
    7    3    8 1     
    8    3    9 2     
    9    4   10 1     
   10    4   11 2     
   11    5   12 1     
   12    5   18 1     
   13    5   19 1     
   14    6   13 ar    
   15    6   20 1     
   16    7   14 ar    
   17    7   21 1     
   18    8   15 1     
   19    8   22 1     
   20   10   15 1     
   21   10   23 1     
   22   12   24 1     
   23   12   25 1     
   24   12   26 1     
   25   13   16 ar    
   26   13   27 1     
   27   14   16 ar    
   28   14   28 1     
   29   15   17 2     
   30   16   29 1     
@<TRIPOS>SUBSTRUCTURE
      1 RES1           1
@<TRIPOS>SET
DONOR_HYDROGENS      STATIC     ATOMS    <user>   **** ""
2 22 23
ATOM$RED        STATIC     ATOMS    COLORGROUP SYSTEM
2 22 23
@<TRIPOS>COMMENT
> <Gold.Version>
2022.3.0

> <Gold.Id.Protein>
unknown|4d1n_clean|pdb

> <Gold.Protein.RotatedTorsions>
[ 16977 16944 16943 16941 ] final  155.33 input   59.98 | X-H torsion
[ 18494 18452 18451 18449 ] final  133.94 input   59.98 | X-H torsion
[ 18554 18521 18522 18523 ] final -132.52 input   91.55 | X-H torsion
[ 18707 18674 18675 18676 ] final -142.23 input  121.65 | X-H torsion
[ 18768 18733 18734 18735 ] final   16.92 input   95.18 | X-H torsion
[ 18950 18904 18905 18906 ] final -177.70 input   99.08 | X-H torsion
[ 19025 18997 18998 18999 ] final -104.47 input  121.68 | X-H torsion
[ 17185 17170 17171 17172 ] final   14.31 input   47.05 | X-H torsion
[ 17233 17212 17213 17214 ] final  -88.47 input  118.29 | X-H torsion
[ 18820 18805 18806 18807 ] final  -74.05 input  116.09 | X-H torsion
[ 19094 19049 19050 19051 ] final  101.97 input   88.91 | X-H torsion
[ 18486 18441 18442 18443 ] final -108.04 input  100.68 | X-H torsion
[ 17293 17275 17276 17277 ] final    6.55 input   51.25 | X-H torsion
[ 18289 18267 18268 18269 ] final -176.03 input   31.65 | X-H torsion
[ 18324 18309 18310 18311 ] final   90.92 input   53.83 | X-H torsion
[ 18399 18347 18348 18349 ] final  104.38 input   27.99 | X-H torsion
[ 7521 7509 7510 7511 ] final   79.45 input   80.33 | X-H torsion
[ 7486 7448 7449 7450 ] final   25.17 input   99.31 | X-H torsion
[ 18600 18585 18586 18587 ] final  -81.74 input  129.83 | X-H torsion
[ 10110 10088 10087 10084 ] final  -51.61 input   59.98 | X-H torsion
[ 18293 18272 18271 18268 ] final  150.30 input   59.99 | X-H torsion
[ 18650 18622 18620 18617 ] final -173.31 input   59.97 | X-H torsion
[ 18866 18836 18837 18838 ] final  -19.08 input   87.55 | X-H torsion
[ 22436 22408 22409 22410 ] final  -76.83 input   59.22 | X-H torsion
[ 10146 10126 10127 10128 ] final -135.47 input   20.82 | X-H torsion
[ 18225 18192 18193 18194 ] final  -66.20 input   40.98 | X-H torsion
[ 11813 11769 11770 11771 ] final  159.66 input   85.42 | X-H torsion
[ 16969 16933 16934 16935 ] final  -67.54 input   88.91 | X-H torsion
[ 27198 18524 18523 18522 ] final   79.65 input    0.00 | X-H torsion
[ 27200 18619 18618 18617 ] final  107.87 input    0.00 | X-H torsion
[ 27203 18677 18676 18675 ] final  -20.15 input    0.00 | X-H torsion
[ 27223 17119 17118 17117 ] final  -70.84 input    0.00 | X-H torsion
[ 27227 11596 11595 11594 ] final -123.95 input   -0.00 | X-H torsion
[ 27231 17044 17043 17042 ] final  117.50 input    0.00 | X-H torsion
[ 27233 18736 18735 18734 ] final  -44.32 input   -0.00 | X-H torsion
[ 27235 18588 18587 18586 ] final -124.52 input    0.00 | X-H torsion
[ 27238 18907 18906 18905 ] final   96.15 input    0.00 | X-H torsion
[ 27240 19000 18999 18998 ] final   79.23 input    0.00 | X-H torsion
[ 27243 17173 17172 17171 ] final  -96.21 input    0.00 | X-H torsion
[ 27245 18350 18349 18348 ] final -103.28 input    0.00 | X-H torsion
[ 27248 11406 11405 11404 ] final  -45.22 input   -0.00 | X-H torsion
[ 27250 18195 18194 18193 ] final   90.27 input    0.00 | X-H torsion
[ 27254 17215 17214 17213 ] final    3.67 input   -0.00 | X-H torsion
[ 27260 18312 18311 18310 ] final   73.35 input   -0.00 | X-H torsion
[ 27262 18444 18443 18442 ] final  -57.42 input    0.00 | X-H torsion
[ 27265 18270 18269 18268 ] final  178.60 input    0.00 | X-H torsion
[ 27273 16936 16935 16934 ] final   26.77 input   -0.00 | X-H torsion

> <Gold.Protein.ActiveResidues>
 TRP414  CYS420  VAL421  GLY422  LEU460  SER462  ALA463  SER482  GLN483  ILE485 
 ARG486  TYR487  ASP500  ASN503  TRP566  TYR567  LEU569  PRO570  ALA571  VAL572 
 SER573  ASN574  PHE589  SER590  GLY591  TRP592  TYR593  MET594  GLY595  THR596 
 GLU597  ILE598  GLY599  VAL600  ARG601  ASP602  TYR603  ARG608  ILE653  VAL654 
 TRP683  PRO687  HEM750  H4B760 

> <Gold.Protein.RotatedAtoms>
  195.1277   10.7383   53.3565 H   0  0  0  0  0  0  0  0  0  0  0  0  # atno 7486 bound_to 7448
  194.9130    9.1656   53.5536 H   0  0  0  0  0  0  0  0  0  0  0  0  # atno 7521 bound_to 7509
  188.8582    2.7235   51.0063 H   0  0  0  0  0  0  0  0  0  0  0  0  # atno 10110 bound_to 10088
  187.9670    0.8270   47.5657 H   0  0  0  0  0  0  0  0  0  0  0  0  # atno 10146 bound_to 10126
  175.8127   16.5929   48.0525 H   0  0  0  0  0  0  0  0  0  0  0  0  # atno 11813 bound_to 11769
  175.9482   12.3393   54.4781 H   0  0  0  0  0  0  0  0  0  0  0  0  # atno 16969 bound_to 16933
  179.8567   15.6461   49.1028 H   0  0  0  0  0  0  0  0  0  0  0  0  # atno 16977 bound_to 16944
  183.2124   10.9282   47.2693 H   0  0  0  0  0  0  0  0  0  0  0  0  # atno 17185 bound_to 17170
  184.5417   10.6622   45.3403 H   0  0  0  0  0  0  0  0  0  0  0  0  # atno 17233 bound_to 17212
  185.9281   12.9615   42.0980 H   0  0  0  0  0  0  0  0  0  0  0  0  # atno 17293 bound_to 17275
  186.0220    7.1479   42.4901 H   0  0  0  0  0  0  0  0  0  0  0  0  # atno 18225 bound_to 18192
  186.6131    6.3139   45.1937 H   0  0  0  0  0  0  0  0  0  0  0  0  # atno 18289 bound_to 18267
  183.6932    4.2113   47.4357 H   0  0  0  0  0  0  0  0  0  0  0  0  # atno 18293 bound_to 18272
  187.3567    6.7231   49.5132 H   0  0  0  0  0  0  0  0  0  0  0  0  # atno 18324 bound_to 18309
  187.0965    5.2643   53.0611 H   0  0  0  0  0  0  0  0  0  0  0  0  # atno 18399 bound_to 18347
  185.5603    8.0370   54.3618 H   0  0  0  0  0  0  0  0  0  0  0  0  # atno 18486 bound_to 18441
  181.5111   13.0800   51.2194 H   0  0  0  0  0  0  0  0  0  0  0  0  # atno 18494 bound_to 18452
  187.1302    9.7492   56.8641 H   0  0  0  0  0  0  0  0  0  0  0  0  # atno 18554 bound_to 18521
  186.2362   12.0122   59.0143 H   0  0  0  0  0  0  0  0  0  0  0  0  # atno 18600 bound_to 18585
  190.0602   16.4132   59.9527 H   0  0  0  0  0  0  0  0  0  0  0  0  # atno 18650 bound_to 18622
  187.3813   16.3392   58.1812 H   0  0  0  0  0  0  0  0  0  0  0  0  # atno 18707 bound_to 18674
  184.3951   16.7068   57.9265 H   0  0  0  0  0  0  0  0  0  0  0  0  # atno 18768 bound_to 18733
  182.1541   17.8502   58.6422 H   0  0  0  0  0  0  0  0  0  0  0  0  # atno 18820 bound_to 18805
  183.5322   19.6544   59.5193 H   0  0  0  0  0  0  0  0  0  0  0  0  # atno 18866 bound_to 18836
  185.9861   20.9537   58.1671 H   0  0  0  0  0  0  0  0  0  0  0  0  # atno 18950 bound_to 18904
  183.8329   21.3221   55.0858 H   0  0  0  0  0  0  0  0  0  0  0  0  # atno 19025 bound_to 18997
  181.3491   20.7660   57.3199 H   0  0  0  0  0  0  0  0  0  0  0  0  # atno 19094 bound_to 19049
  185.5334    7.5128   60.8392 H   0  0  0  0  0  0  0  0  0  0  0  0  # atno 22436 bound_to 22408
  180.8961   14.4035   48.9524 LP  0  0  0  0  0  0  0  0  0  0  0  0  # atno 27193 bound_to 16944
  180.7945   15.2208   50.3625 LP  0  0  0  0  0  0  0  0  0  0  0  0  # atno 27194 bound_to 16944
  182.6778   14.1544   51.5847 LP  0  0  0  0  0  0  0  0  0  0  0  0  # atno 27195 bound_to 18452
  181.2192   14.2498   52.3127 LP  0  0  0  0  0  0  0  0  0  0  0  0  # atno 27196 bound_to 18452
  186.8742   11.3696   56.2567 LP  0  0  0  0  0  0  0  0  0  0  0  0  # atno 27197 bound_to 18521
  185.5877   13.1160   57.2811 LP  0  0  0  0  0  0  0  0  0  0  0  0  # atno 27198 bound_to 18524
  186.7177   14.1962   58.0268 LP  0  0  0  0  0  0  0  0  0  0  0  0  # atno 27199 bound_to 18524
  186.7595   18.9000   58.1319 LP  0  0  0  0  0  0  0  0  0  0  0  0  # atno 27200 bound_to 18619
  185.2412   18.6563   58.9291 LP  0  0  0  0  0  0  0  0  0  0  0  0  # atno 27201 bound_to 18619
  185.7367   15.8009   58.4121 LP  0  0  0  0  0  0  0  0  0  0  0  0  # atno 27202 bound_to 18674
  185.2037   18.8055   55.5464 LP  0  0  0  0  0  0  0  0  0  0  0  0  # atno 27203 bound_to 18677
  183.5197   18.4002   55.5478 LP  0  0  0  0  0  0  0  0  0  0  0  0  # atno 27204 bound_to 18677
  184.1502   16.0128   56.3379 LP  0  0  0  0  0  0  0  0  0  0  0  0  # atno 27209 bound_to 18733
  184.2549   20.7577   58.0529 LP  0  0  0  0  0  0  0  0  0  0  0  0  # atno 27210 bound_to 18904
  183.2311   20.1566   56.2390 LP  0  0  0  0  0  0  0  0  0  0  0  0  # atno 27211 bound_to 18997
  185.5393    8.9566   49.0245 LP  0  0  0  0  0  0  0  0  0  0  0  0  # atno 27223 bound_to 17119
  184.4755    7.7285   48.4244 LP  0  0  0  0  0  0  0  0  0  0  0  0  # atno 27224 bound_to 17119
  183.2404    9.4151   48.1434 LP  0  0  0  0  0  0  0  0  0  0  0  0  # atno 27225 bound_to 17170
  186.1311    9.9695   45.5801 LP  0  0  0  0  0  0  0  0  0  0  0  0  # atno 27226 bound_to 17212
  178.9360   13.6149   47.8213 LP  0  0  0  0  0  0  0  0  0  0  0  0  # atno 27227 bound_to 11596
  179.7832   13.0140   46.4352 LP  0  0  0  0  0  0  0  0  0  0  0  0  # atno 27228 bound_to 11596
  180.3679   10.4142   49.3641 LP  0  0  0  0  0  0  0  0  0  0  0  0  # atno 27231 bound_to 17044
  180.2801    9.0160   48.3457 LP  0  0  0  0  0  0  0  0  0  0  0  0  # atno 27232 bound_to 17044
  182.0079   19.5460   57.2307 LP  0  0  0  0  0  0  0  0  0  0  0  0  # atno 27233 bound_to 18736
  181.0514   19.4394   58.6708 LP  0  0  0  0  0  0  0  0  0  0  0  0  # atno 27234 bound_to 18736
  184.2481   15.9278   59.2039 LP  0  0  0  0  0  0  0  0  0  0  0  0  # atno 27235 bound_to 18588
  183.5359   15.3635   60.6784 LP  0  0  0  0  0  0  0  0  0  0  0  0  # atno 27236 bound_to 18588
  183.2456   16.8171   59.5406 LP  0  0  0  0  0  0  0  0  0  0  0  0  # atno 27237 bound_to 18805
  183.3641   23.3716   54.5780 LP  0  0  0  0  0  0  0  0  0  0  0  0  # atno 27238 bound_to 18907
  182.8551   23.5083   56.2279 LP  0  0  0  0  0  0  0  0  0  0  0  0  # atno 27239 bound_to 18907
  179.0645   21.7992   54.5932 LP  0  0  0  0  0  0  0  0  0  0  0  0  # atno 27240 bound_to 19000
  179.9782   23.2395   54.8944 LP  0  0  0  0  0  0  0  0  0  0  0  0  # atno 27241 bound_to 19000
  180.8374   21.7172   55.9452 LP  0  0  0  0  0  0  0  0  0  0  0  0  # atno 27242 bound_to 19049
  183.5252   10.2093   43.2642 LP  0  0  0  0  0  0  0  0  0  0  0  0  # atno 27243 bound_to 17173
  182.8680   11.3855   44.3527 LP  0  0  0  0  0  0  0  0  0  0  0  0  # atno 27244 bound_to 17173
  187.8936    7.9944   54.9824 LP  0  0  0  0  0  0  0  0  0  0  0  0  # atno 27245 bound_to 18350
  187.4291    8.5142   53.3968 LP  0  0  0  0  0  0  0  0  0  0  0  0  # atno 27246 bound_to 18350
  184.5430    7.7261   55.7485 LP  0  0  0  0  0  0  0  0  0  0  0  0  # atno 27247 bound_to 18441
  185.2683   14.3769   41.8231 LP  0  0  0  0  0  0  0  0  0  0  0  0  # atno 27248 bound_to 11406
  184.9213   14.3444   43.5197 LP  0  0  0  0  0  0  0  0  0  0  0  0  # atno 27249 bound_to 11406
  185.7378    8.1978   45.0517 LP  0  0  0  0  0  0  0  0  0  0  0  0  # atno 27250 bound_to 18195
  187.3355    8.5593   45.6144 LP  0  0  0  0  0  0  0  0  0  0  0  0  # atno 27251 bound_to 18195
  186.9736    9.5712   43.2583 LP  0  0  0  0  0  0  0  0  0  0  0  0  # atno 27254 bound_to 17215
  186.6122    9.8777   41.5924 LP  0  0  0  0  0  0  0  0  0  0  0  0  # atno 27255 bound_to 17215
  185.2824   11.4851   42.7607 LP  0  0  0  0  0  0  0  0  0  0  0  0  # atno 27256 bound_to 17275
  187.5751    5.0222   45.8692 LP  0  0  0  0  0  0  0  0  0  0  0  0  # atno 27257 bound_to 18267
  186.4621    5.3650   48.8633 LP  0  0  0  0  0  0  0  0  0  0  0  0  # atno 27258 bound_to 18309
  186.4671    6.4902   51.9775 LP  0  0  0  0  0  0  0  0  0  0  0  0  # atno 27259 bound_to 18347
  184.8139    3.8879   51.7089 LP  0  0  0  0  0  0  0  0  0  0  0  0  # atno 27260 bound_to 18312
  184.2663    5.4785   51.2967 LP  0  0  0  0  0  0  0  0  0  0  0  0  # atno 27261 bound_to 18312
  185.3662    8.7078   58.2836 LP  0  0  0  0  0  0  0  0  0  0  0  0  # atno 27262 bound_to 18444
  187.0381    8.3187   58.0520 LP  0  0  0  0  0  0  0  0  0  0  0  0  # atno 27263 bound_to 18444
  195.6375    9.0988   55.1383 LP  0  0  0  0  0  0  0  0  0  0  0  0  # atno 27264 bound_to 7509
  187.7684    3.5168   48.9162 LP  0  0  0  0  0  0  0  0  0  0  0  0  # atno 27265 bound_to 18270
  187.2405    3.6585   47.2727 LP  0  0  0  0  0  0  0  0  0  0  0  0  # atno 27266 bound_to 18270
  196.3943   11.9439   53.4493 LP  0  0  0  0  0  0  0  0  0  0  0  0  # atno 27267 bound_to 7448
  186.9664   11.9747   60.6011 LP  0  0  0  0  0  0  0  0  0  0  0  0  # atno 27268 bound_to 18585
  190.3817    2.1583   51.0950 LP  0  0  0  0  0  0  0  0  0  0  0  0  # atno 27269 bound_to 10088
  189.1356    1.2402   51.6154 LP  0  0  0  0  0  0  0  0  0  0  0  0  # atno 27270 bound_to 10088
  185.2799    3.8782   47.2971 LP  0  0  0  0  0  0  0  0  0  0  0  0  # atno 27271 bound_to 18272
  184.4324    4.3854   45.9967 LP  0  0  0  0  0  0  0  0  0  0  0  0  # atno 27272 bound_to 18272
  178.3395   11.6608   54.3355 LP  0  0  0  0  0  0  0  0  0  0  0  0  # atno 27273 bound_to 16936
  179.3176   10.2924   53.9222 LP  0  0  0  0  0  0  0  0  0  0  0  0  # atno 27274 bound_to 16936

> <Gold.Score>
     Fitness  S(hb_ext) S(vdw_ext)  S(hb_int)    S(int)      intcor
     44.11       0.64      31.65       0.00      -0.05      -0.77

> <Gold.Goldscore.Fitness>
44.1082

> <Gold.Goldscore.Internal.Vdw>
-0.4411

> <Gold.Goldscore.Internal.Torsion>
-0.3743

> <Gold.Goldscore.External.Vdw>
31.6454

> <Gold.Goldscore.Internal.HBond>
0.0000

> <Gold.Goldscore.External.HBond>
0.6425

> <Gold.Goldscore.Internal.Correction>
-0.7686

> <Gold.Goldscore.Hbonds>
donor molecule, donor type, donor heavy atom, donor atom, acceptor molecule, acceptor atom, score
      P1  H 11457 11491       L1    17  0.15
      P1  H 16849 16887       L1    17  0.04
      L1  H     8    22       P1 11458  0.04

> <Gold.Goldscore.Internal.Vdw.Weighted>
-0.4411

> <Gold.Goldscore.Internal.Torsion.Weighted>
-0.3743

> <Gold.Goldscore.External.Vdw.Weighted>
43.5124

> <Gold.Goldscore.Internal.HBond.Weighted>
0.0000

> <Gold.Goldscore.External.HBond.Weighted>
0.6425

> <Gold.Goldscore.Internal.Correction.Weighted>
-0.7686

> <Gold.Rescore>
     Score     S(PLP)   S(hbond)     S(cho)   S(metal)  DE(clash)   DE(tors)     intcor
    -13.08      13.66       0.26       0.00       0.00       0.00       0.09       ----

> <Gold.PLP.Fitness>
-13.0753

> <Gold.PLP.PLP>
13.6616

> <Gold.PLP.part.hbond>
-0.3205

> <Gold.PLP.part.metal>
0.0000

> <Gold.PLP.part.buried>
36.8265

> <Gold.PLP.part.nonpolar>
-35.0799

> <Gold.PLP.part.repulsive>
13.1565

> <Gold.PLP.ligand.clash>
0.0000

> <Gold.PLP.ligand.torsion>
0.0908

> <Gold.PLP.Chemscore.Hbond>
0.2560

> <Gold.PLP.Chemscore.CHOScore>
0.0000

> <Gold.PLP.Chemscore.Metal>
0.0000

> <Gold.Chemscore.Hbonds>
donor molecule, donor type, donor heavy atom, donor atom, acceptor molecule, acceptor atom, score
      L1  H     8    22       P1 11458  0.56

> <Gold.PLP.Chemscore.Internal.Correction>
   9.000000E+99

