#       Name:                CT1002167954
#       Creating user name   hitesit
#       Creation time:       Sun Apr 16 22:56:29 2023


#       File generated by GOLD software.
#

@<TRIPOS>MOLECULE
CT1002167954|ligand_prepared|mol2|1|dock6
    29    30     1
SMALL
NO_CHARGES


@<TRIPOS>ATOM
      1 C1         187.2589  16.7501  47.5521 C.3            1 RES1               0.0000
      2 C2         187.2965  15.5602  48.5327 C.ar           1 RES1               0.0000
      3 C3         188.7065  17.1918  47.3586 C.2            1 RES1               0.0000
      4 C4         186.5904  16.2353  46.2821 C.2            1 RES1               0.0000
      5 C5         186.4414  17.9579  48.0663 C.3            1 RES1               0.0000
      6 C6         186.2945  15.3941  49.4841 C.ar           1 RES1               0.0000
      7 C7         188.3234  14.6207  48.4964 C.ar           1 RES1               0.0000
      8 N8         189.3078  16.8846  46.1737 N.am           1 RES1               0.0000
      9 O9         189.3236  17.7660  48.2472 O.2            1 RES1               0.0000
     10 N10        187.3451  16.1709  45.1401 N.am           1 RES1               0.0000
     11 O11        185.4217  15.8692  46.2640 O.2            1 RES1               0.0000
     12 C12        186.5898  19.2071  47.2121 C.3            1 RES1               0.0000
     13 C13        186.3167  14.3258  50.3654 C.ar           1 RES1               0.0000
     14 C14        188.3438  13.5533  49.3788 C.ar           1 RES1               0.0000
     15 C15        188.6819  16.4433  45.0356 C.2            1 RES1               0.0000
     16 C16        187.3409  13.4046  50.3131 C.ar           1 RES1               0.0000
     17 O17        189.3036  16.3095  43.9855 O.2            1 RES1               0.0000
     18 H18        185.3813  17.6778  48.1010 H              1 RES1               0.0000
     19 H19        186.7605  18.1902  49.0899 H              1 RES1               0.0000
     20 H20        185.4817  16.1104  49.5419 H              1 RES1               0.0000
     21 H21        189.1235  14.7182  47.7705 H              1 RES1               0.0000
     22 H22        190.3161  16.9929  46.1298 H              1 RES1               0.0000
     23 H23        186.8659  15.8945  44.2891 H              1 RES1               0.0000
     24 H24        185.9961  20.0240  47.6169 H              1 RES1               0.0000
     25 H25        187.6286  19.5286  47.1762 H              1 RES1               0.0000
     26 H26        186.2577  19.0193  46.1932 H              1 RES1               0.0000
     27 H27        185.5258  14.2141  51.0997 H              1 RES1               0.0000
     28 H28        189.1522  12.8309  49.3344 H              1 RES1               0.0000
     29 H29        187.3579  12.5676  51.0033 H              1 RES1               0.0000
@<TRIPOS>BOND
    1    1    2 1     
    2    1    3 1     
    3    1    4 1     
    4    1    5 1     
    5    2    6 ar    
    6    2    7 ar    
    7    3    8 1     
    8    3    9 2     
    9    4   10 1     
   10    4   11 2     
   11    5   12 1     
   12    5   18 1     
   13    5   19 1     
   14    6   13 ar    
   15    6   20 1     
   16    7   14 ar    
   17    7   21 1     
   18    8   15 1     
   19    8   22 1     
   20   10   15 1     
   21   10   23 1     
   22   12   24 1     
   23   12   25 1     
   24   12   26 1     
   25   13   16 ar    
   26   13   27 1     
   27   14   16 ar    
   28   14   28 1     
   29   15   17 2     
   30   16   29 1     
@<TRIPOS>SUBSTRUCTURE
      1 RES1           1
@<TRIPOS>SET
DONOR_HYDROGENS      STATIC     ATOMS    <user>   **** ""
2 22 23
ATOM$RED        STATIC     ATOMS    COLORGROUP SYSTEM
2 22 23
@<TRIPOS>COMMENT
> <Gold.Version>
2022.3.0

> <Gold.Id.Protein>
unknown|4d1n_clean|pdb

> <Gold.Protein.RotatedTorsions>
[ 16977 16944 16943 16941 ] final -119.34 input   59.98 | X-H torsion
[ 18494 18452 18451 18449 ] final   15.40 input   59.98 | X-H torsion
[ 18554 18521 18522 18523 ] final   -9.88 input   91.55 | X-H torsion
[ 18707 18674 18675 18676 ] final   19.00 input  121.65 | X-H torsion
[ 18768 18733 18734 18735 ] final  173.24 input   95.18 | X-H torsion
[ 18950 18904 18905 18906 ] final -162.13 input   99.08 | X-H torsion
[ 19025 18997 18998 18999 ] final  -38.43 input  121.68 | X-H torsion
[ 17185 17170 17171 17172 ] final   69.01 input   47.05 | X-H torsion
[ 17233 17212 17213 17214 ] final  152.24 input  118.29 | X-H torsion
[ 18820 18805 18806 18807 ] final   -6.19 input  116.09 | X-H torsion
[ 19094 19049 19050 19051 ] final   92.21 input   88.91 | X-H torsion
[ 18486 18441 18442 18443 ] final   17.71 input  100.68 | X-H torsion
[ 17293 17275 17276 17277 ] final   44.47 input   51.25 | X-H torsion
[ 18289 18267 18268 18269 ] final  129.96 input   31.65 | X-H torsion
[ 18324 18309 18310 18311 ] final  -86.72 input   53.83 | X-H torsion
[ 18399 18347 18348 18349 ] final -140.74 input   27.99 | X-H torsion
[ 7521 7509 7510 7511 ] final   85.80 input   80.33 | X-H torsion
[ 7486 7448 7449 7450 ] final  -28.66 input   99.31 | X-H torsion
[ 18600 18585 18586 18587 ] final  -72.33 input  129.83 | X-H torsion
[ 10110 10088 10087 10084 ] final   26.77 input   59.98 | X-H torsion
[ 18293 18272 18271 18268 ] final  -32.97 input   59.99 | X-H torsion
[ 18650 18622 18620 18617 ] final -150.67 input   59.97 | X-H torsion
[ 18866 18836 18837 18838 ] final   75.59 input   87.55 | X-H torsion
[ 22436 22408 22409 22410 ] final  135.96 input   59.22 | X-H torsion
[ 10146 10126 10127 10128 ] final  145.20 input   20.82 | X-H torsion
[ 18225 18192 18193 18194 ] final -116.82 input   40.98 | X-H torsion
[ 11813 11769 11770 11771 ] final   80.31 input   85.42 | X-H torsion
[ 16969 16933 16934 16935 ] final   36.23 input   88.91 | X-H torsion
[ 27198 18524 18523 18522 ] final  -21.47 input    0.00 | X-H torsion
[ 27200 18619 18618 18617 ] final -133.45 input    0.00 | X-H torsion
[ 27203 18677 18676 18675 ] final -104.64 input    0.00 | X-H torsion
[ 27223 17119 17118 17117 ] final  152.73 input    0.00 | X-H torsion
[ 27227 11596 11595 11594 ] final  -30.87 input   -0.00 | X-H torsion
[ 27231 17044 17043 17042 ] final   13.10 input    0.00 | X-H torsion
[ 27233 18736 18735 18734 ] final  170.74 input   -0.00 | X-H torsion
[ 27235 18588 18587 18586 ] final  159.58 input    0.00 | X-H torsion
[ 27238 18907 18906 18905 ] final -122.98 input    0.00 | X-H torsion
[ 27240 19000 18999 18998 ] final    6.38 input    0.00 | X-H torsion
[ 27243 17173 17172 17171 ] final  168.03 input    0.00 | X-H torsion
[ 27245 18350 18349 18348 ] final   91.87 input    0.00 | X-H torsion
[ 27248 11406 11405 11404 ] final  -19.56 input   -0.00 | X-H torsion
[ 27250 18195 18194 18193 ] final  -73.65 input    0.00 | X-H torsion
[ 27254 17215 17214 17213 ] final   58.49 input   -0.00 | X-H torsion
[ 27260 18312 18311 18310 ] final -159.25 input   -0.00 | X-H torsion
[ 27262 18444 18443 18442 ] final   61.56 input    0.00 | X-H torsion
[ 27265 18270 18269 18268 ] final -103.96 input    0.00 | X-H torsion
[ 27273 16936 16935 16934 ] final   41.94 input   -0.00 | X-H torsion

> <Gold.Protein.ActiveResidues>
 TRP414  CYS420  VAL421  GLY422  LEU460  SER462  ALA463  SER482  GLN483  ILE485 
 ARG486  TYR487  ASP500  ASN503  TRP566  TYR567  LEU569  PRO570  ALA571  VAL572 
 SER573  ASN574  PHE589  SER590  GLY591  TRP592  TYR593  MET594  GLY595  THR596 
 GLU597  ILE598  GLY599  VAL600  ARG601  ASP602  TYR603  ARG608  ILE653  VAL654 
 TRP683  PRO687  HEM750  H4B760 

> <Gold.Protein.RotatedAtoms>
  195.8566   10.5239   53.0852 H   0  0  0  0  0  0  0  0  0  0  0  0  # atno 7486 bound_to 7448
  194.8352    9.2044   53.5967 H   0  0  0  0  0  0  0  0  0  0  0  0  # atno 7521 bound_to 7509
  188.6365    1.6632   51.4826 H   0  0  0  0  0  0  0  0  0  0  0  0  # atno 10110 bound_to 10088
  186.8801    1.1051   47.6367 H   0  0  0  0  0  0  0  0  0  0  0  0  # atno 10146 bound_to 10126
  176.3617   17.5617   47.8339 H   0  0  0  0  0  0  0  0  0  0  0  0  # atno 11813 bound_to 11769
  177.0560   12.7613   53.7394 H   0  0  0  0  0  0  0  0  0  0  0  0  # atno 16969 bound_to 16933
  180.4012   15.6024   50.2477 H   0  0  0  0  0  0  0  0  0  0  0  0  # atno 16977 bound_to 16944
  182.5295   10.4875   47.2750 H   0  0  0  0  0  0  0  0  0  0  0  0  # atno 17185 bound_to 17170
  185.8560   10.6054   46.1306 H   0  0  0  0  0  0  0  0  0  0  0  0  # atno 17233 bound_to 17212
  185.3709   13.0266   42.1851 H   0  0  0  0  0  0  0  0  0  0  0  0  # atno 17293 bound_to 17275
  186.4305    6.8017   41.9681 H   0  0  0  0  0  0  0  0  0  0  0  0  # atno 18225 bound_to 18192
  186.2807    5.5853   45.2141 H   0  0  0  0  0  0  0  0  0  0  0  0  # atno 18289 bound_to 18267
  185.2118    4.1253   46.3456 H   0  0  0  0  0  0  0  0  0  0  0  0  # atno 18293 bound_to 18272
  186.4203    5.3423   48.8872 H   0  0  0  0  0  0  0  0  0  0  0  0  # atno 18324 bound_to 18309
  186.0856    5.6265   52.0015 H   0  0  0  0  0  0  0  0  0  0  0  0  # atno 18399 bound_to 18347
  185.3154    7.5516   55.8397 H   0  0  0  0  0  0  0  0  0  0  0  0  # atno 18486 bound_to 18441
  182.6767   14.1336   51.5711 H   0  0  0  0  0  0  0  0  0  0  0  0  # atno 18494 bound_to 18452
  186.2376   11.0099   56.6699 H   0  0  0  0  0  0  0  0  0  0  0  0  # atno 18554 bound_to 18521
  186.3209   12.1275   58.9912 H   0  0  0  0  0  0  0  0  0  0  0  0  # atno 18600 bound_to 18585
  189.9861   16.1226   60.1648 H   0  0  0  0  0  0  0  0  0  0  0  0  # atno 18650 bound_to 18622
  185.6954   16.0686   58.5012 H   0  0  0  0  0  0  0  0  0  0  0  0  # atno 18707 bound_to 18674
  184.0511   15.7235   56.5298 H   0  0  0  0  0  0  0  0  0  0  0  0  # atno 18768 bound_to 18733
  183.1311   18.0160   58.7277 H   0  0  0  0  0  0  0  0  0  0  0  0  # atno 18820 bound_to 18805
  184.6572   19.0149   59.6657 H   0  0  0  0  0  0  0  0  0  0  0  0  # atno 18866 bound_to 18836
  185.9233   21.1613   58.2670 H   0  0  0  0  0  0  0  0  0  0  0  0  # atno 18950 bound_to 18904
  183.4323   21.5724   55.9234 H   0  0  0  0  0  0  0  0  0  0  0  0  # atno 19025 bound_to 18997
  181.4471   20.8777   57.3444 H   0  0  0  0  0  0  0  0  0  0  0  0  # atno 19094 bound_to 19049
  186.5450    7.1041   59.5706 H   0  0  0  0  0  0  0  0  0  0  0  0  # atno 22436 bound_to 22408
  180.0047   15.2841   48.7021 LP  0  0  0  0  0  0  0  0  0  0  0  0  # atno 27193 bound_to 16944
  181.1374   14.3841   49.4596 LP  0  0  0  0  0  0  0  0  0  0  0  0  # atno 27194 bound_to 16944
  181.2366   14.2655   52.3180 LP  0  0  0  0  0  0  0  0  0  0  0  0  # atno 27195 bound_to 18452
  181.4870   13.0781   51.2253 LP  0  0  0  0  0  0  0  0  0  0  0  0  # atno 27196 bound_to 18452
  187.7414   10.1449   56.4454 LP  0  0  0  0  0  0  0  0  0  0  0  0  # atno 27197 bound_to 18521
  186.8549   13.5275   57.1637 LP  0  0  0  0  0  0  0  0  0  0  0  0  # atno 27198 bound_to 18524
  185.4504   13.7847   58.1441 LP  0  0  0  0  0  0  0  0  0  0  0  0  # atno 27199 bound_to 18524
  185.3179   18.5307   58.0582 LP  0  0  0  0  0  0  0  0  0  0  0  0  # atno 27200 bound_to 18619
  186.6828   19.0256   59.0028 LP  0  0  0  0  0  0  0  0  0  0  0  0  # atno 27201 bound_to 18619
  187.3939   16.0669   58.0976 LP  0  0  0  0  0  0  0  0  0  0  0  0  # atno 27202 bound_to 18674
  184.3387   19.0564   56.2845 LP  0  0  0  0  0  0  0  0  0  0  0  0  # atno 27203 bound_to 18677
  184.3847   18.1493   54.8097 LP  0  0  0  0  0  0  0  0  0  0  0  0  # atno 27204 bound_to 18677
  184.4827   16.9633   57.6881 LP  0  0  0  0  0  0  0  0  0  0  0  0  # atno 27209 bound_to 18733
  184.3165   20.5539   57.9548 LP  0  0  0  0  0  0  0  0  0  0  0  0  # atno 27210 bound_to 18904
  183.6235   19.9114   55.4185 LP  0  0  0  0  0  0  0  0  0  0  0  0  # atno 27211 bound_to 18997
  184.8191    7.9979   47.9526 LP  0  0  0  0  0  0  0  0  0  0  0  0  # atno 27223 bound_to 17119
  185.1957    8.6872   49.4963 LP  0  0  0  0  0  0  0  0  0  0  0  0  # atno 27224 bound_to 17119
  183.9068    9.8450   48.1379 LP  0  0  0  0  0  0  0  0  0  0  0  0  # atno 27225 bound_to 17170
  184.8586   10.0245   44.8149 LP  0  0  0  0  0  0  0  0  0  0  0  0  # atno 27226 bound_to 17212
  179.3190   12.4936   47.4013 LP  0  0  0  0  0  0  0  0  0  0  0  0  # atno 27227 bound_to 11596
  179.4001   14.1353   46.8552 LP  0  0  0  0  0  0  0  0  0  0  0  0  # atno 27228 bound_to 11596
  179.5748    9.3382   49.0708 LP  0  0  0  0  0  0  0  0  0  0  0  0  # atno 27231 bound_to 17044
  181.0732   10.0920   48.6389 LP  0  0  0  0  0  0  0  0  0  0  0  0  # atno 27232 bound_to 17044
  181.5025   19.6685   58.7983 LP  0  0  0  0  0  0  0  0  0  0  0  0  # atno 27233 bound_to 18736
  181.5569   19.3169   57.1032 LP  0  0  0  0  0  0  0  0  0  0  0  0  # atno 27234 bound_to 18736
  184.3266   16.3571   60.1754 LP  0  0  0  0  0  0  0  0  0  0  0  0  # atno 27235 bound_to 18588
  183.4573   14.9342   59.7069 LP  0  0  0  0  0  0  0  0  0  0  0  0  # atno 27236 bound_to 18588
  182.3028   16.6572   59.4581 LP  0  0  0  0  0  0  0  0  0  0  0  0  # atno 27237 bound_to 18805
  182.4293   23.2729   55.9122 LP  0  0  0  0  0  0  0  0  0  0  0  0  # atno 27238 bound_to 18907
  183.7899   23.6070   54.8937 LP  0  0  0  0  0  0  0  0  0  0  0  0  # atno 27239 bound_to 18907
  179.7975   22.1948   53.9899 LP  0  0  0  0  0  0  0  0  0  0  0  0  # atno 27240 bound_to 19000
  179.2452   22.8439   55.4977 LP  0  0  0  0  0  0  0  0  0  0  0  0  # atno 27241 bound_to 19000
  180.7419   21.6084   55.9213 LP  0  0  0  0  0  0  0  0  0  0  0  0  # atno 27242 bound_to 19049
  183.7548   11.4270   43.6035 LP  0  0  0  0  0  0  0  0  0  0  0  0  # atno 27243 bound_to 17173
  182.6385   10.1678   44.0134 LP  0  0  0  0  0  0  0  0  0  0  0  0  # atno 27244 bound_to 17173
  187.3827    8.7087   53.5070 LP  0  0  0  0  0  0  0  0  0  0  0  0  # atno 27245 bound_to 18350
  187.9401    7.7999   54.8722 LP  0  0  0  0  0  0  0  0  0  0  0  0  # atno 27246 bound_to 18350
  184.7818    8.1996   54.3069 LP  0  0  0  0  0  0  0  0  0  0  0  0  # atno 27247 bound_to 18441
  185.3950   14.7198   41.9428 LP  0  0  0  0  0  0  0  0  0  0  0  0  # atno 27248 bound_to 11406
  184.7946   14.0014   43.4000 LP  0  0  0  0  0  0  0  0  0  0  0  0  # atno 27249 bound_to 11406
  187.3707    8.6068   45.3794 LP  0  0  0  0  0  0  0  0  0  0  0  0  # atno 27250 bound_to 18195
  185.7025    8.1503   45.2867 LP  0  0  0  0  0  0  0  0  0  0  0  0  # atno 27251 bound_to 18195
  186.2711    9.3146   42.9819 LP  0  0  0  0  0  0  0  0  0  0  0  0  # atno 27254 bound_to 17215
  187.3147   10.1343   41.8688 LP  0  0  0  0  0  0  0  0  0  0  0  0  # atno 27255 bound_to 17215
  185.8363   11.4203   42.6740 LP  0  0  0  0  0  0  0  0  0  0  0  0  # atno 27256 bound_to 17275
  187.9007    5.7361   45.8492 LP  0  0  0  0  0  0  0  0  0  0  0  0  # atno 27257 bound_to 18267
  187.3657    6.6975   49.4674 LP  0  0  0  0  0  0  0  0  0  0  0  0  # atno 27258 bound_to 18309
  187.4358    6.1431   52.9929 LP  0  0  0  0  0  0  0  0  0  0  0  0  # atno 27259 bound_to 18347
  184.2085    5.2798   52.0357 LP  0  0  0  0  0  0  0  0  0  0  0  0  # atno 27260 bound_to 18312
  184.8717    4.0865   50.9698 LP  0  0  0  0  0  0  0  0  0  0  0  0  # atno 27261 bound_to 18312
  186.4156    7.9082   57.5861 LP  0  0  0  0  0  0  0  0  0  0  0  0  # atno 27262 bound_to 18444
  185.9887    9.1182   58.7495 LP  0  0  0  0  0  0  0  0  0  0  0  0  # atno 27263 bound_to 18444
  195.7145    9.0604   55.0956 LP  0  0  0  0  0  0  0  0  0  0  0  0  # atno 27264 bound_to 7509
  186.7998    3.2799   48.4928 LP  0  0  0  0  0  0  0  0  0  0  0  0  # atno 27265 bound_to 18270
  188.2092    3.8954   47.6961 LP  0  0  0  0  0  0  0  0  0  0  0  0  # atno 27266 bound_to 18270
  195.6909   12.1508   53.7111 LP  0  0  0  0  0  0  0  0  0  0  0  0  # atno 27267 bound_to 7448
  186.8837   11.8620   60.6238 LP  0  0  0  0  0  0  0  0  0  0  0  0  # atno 27268 bound_to 18585
  189.4843    2.9080   50.8662 LP  0  0  0  0  0  0  0  0  0  0  0  0  # atno 27269 bound_to 10088
  190.2562    1.5581   51.3647 LP  0  0  0  0  0  0  0  0  0  0  0  0  # atno 27270 bound_to 10088
  183.6298    4.4309   46.5728 LP  0  0  0  0  0  0  0  0  0  0  0  0  # atno 27271 bound_to 18272
  184.5529    3.9194   47.8190 LP  0  0  0  0  0  0  0  0  0  0  0  0  # atno 27272 bound_to 18272
  178.3081   11.5420   54.5282 LP  0  0  0  0  0  0  0  0  0  0  0  0  # atno 27273 bound_to 16936
  179.3490   10.4112   53.7295 LP  0  0  0  0  0  0  0  0  0  0  0  0  # atno 27274 bound_to 16936

> <Gold.Score>
     Fitness  S(hb_ext) S(vdw_ext)  S(hb_int)    S(int)      intcor
     33.77       5.73      20.94       0.00      -0.75      -0.76

> <Gold.Goldscore.Fitness>
33.7687

> <Gold.Goldscore.Internal.Vdw>
-0.9979

> <Gold.Goldscore.Internal.Torsion>
-0.5146

> <Gold.Goldscore.External.Vdw>
20.9421

> <Gold.Goldscore.Internal.HBond>
0.0000

> <Gold.Goldscore.External.HBond>
5.7273

> <Gold.Goldscore.Internal.Correction>
-0.7585

> <Gold.Goldscore.Hbonds>
donor molecule, donor type, donor heavy atom, donor atom, acceptor molecule, acceptor atom, score
      P1  H 11457 11492       L1    11  0.10
      P1  H 17327 17349       L1    17  1.00
      L1  H     8    22       P1 26826  0.57
      L1  H    10    23       P1 11406  0.04

> <Gold.Goldscore.Internal.Vdw.Weighted>
-0.9979

> <Gold.Goldscore.Internal.Torsion.Weighted>
-0.5146

> <Gold.Goldscore.External.Vdw.Weighted>
28.7954

> <Gold.Goldscore.Internal.HBond.Weighted>
0.0000

> <Gold.Goldscore.External.HBond.Weighted>
5.7273

> <Gold.Goldscore.Internal.Correction.Weighted>
-0.7585

> <Gold.Rescore>
     Score     S(PLP)   S(hbond)     S(cho)   S(metal)  DE(clash)   DE(tors)     intcor
     27.68     -24.59       1.78       0.00       0.00       0.00       1.13       ----

> <Gold.PLP.Fitness>
27.6777

> <Gold.PLP.PLP>
-24.5912

> <Gold.PLP.part.hbond>
-2.9062

> <Gold.PLP.part.metal>
0.0000

> <Gold.PLP.part.buried>
0.8729

> <Gold.PLP.part.nonpolar>
-25.7319

> <Gold.PLP.part.repulsive>
1.1174

> <Gold.PLP.ligand.clash>
0.0000

> <Gold.PLP.ligand.torsion>
1.1329

> <Gold.PLP.Chemscore.Hbond>
1.7841

> <Gold.PLP.Chemscore.CHOScore>
0.0000

> <Gold.PLP.Chemscore.Metal>
0.0000

> <Gold.Chemscore.Hbonds>
donor molecule, donor type, donor heavy atom, donor atom, acceptor molecule, acceptor atom, score
      L1  H     8    22       P1 26826  0.15
      P1  H 11457 11492       L1    11  0.61
      P1  H 17327 17349       L1    17  0.75

> <Gold.PLP.Chemscore.Internal.Correction>
   9.000000E+99

