#       Name:                CT1002167954
#       Creating user name   hitesit
#       Creation time:       Sun Apr 16 22:56:31 2023


#       File generated by GOLD software.
#

@<TRIPOS>MOLECULE
CT1002167954|ligand_prepared|mol2|1|dock8
    29    30     1
SMALL
NO_CHARGES


@<TRIPOS>ATOM
      1 C1         186.3983  20.2102  49.3132 C.3            1 RES1               0.0000
      2 C2         186.4552  19.1368  48.2072 C.ar           1 RES1               0.0000
      3 C3         185.7349  19.5494  50.5180 C.2            1 RES1               0.0000
      4 C4         187.8383  20.6473  49.5580 C.2            1 RES1               0.0000
      5 C5         185.5780  21.4629  48.9265 C.3            1 RES1               0.0000
      6 C6         187.5292  18.2552  48.1300 C.ar           1 RES1               0.0000
      7 C7         185.4417  19.0143  47.2604 C.ar           1 RES1               0.0000
      8 N8         186.5301  19.2219  51.5764 N.am           1 RES1               0.0000
      9 O9         184.5392  19.2838  50.5232 O.2            1 RES1               0.0000
     10 N10        188.3963  20.3658  50.7775 N.am           1 RES1               0.0000
     11 O11        188.5003  21.2182  48.6999 O.2            1 RES1               0.0000
     12 C12        185.8339  22.6642  49.8229 C.3            1 RES1               0.0000
     13 C13        187.5866  17.2843  47.1438 C.ar           1 RES1               0.0000
     14 C14        185.5012  18.0429  46.2749 C.ar           1 RES1               0.0000
     15 C15        187.8176  19.6457  51.7868 C.2            1 RES1               0.0000
     16 C16        186.5726  17.1772  46.2160 C.ar           1 RES1               0.0000
     17 O17        188.4035  19.3869  52.8341 O.2            1 RES1               0.0000
     18 H18        185.8183  21.7368  47.8918 H              1 RES1               0.0000
     19 H19        184.5107  21.2126  48.9678 H              1 RES1               0.0000
     20 H20        188.3377  18.3258  48.8500 H              1 RES1               0.0000
     21 H21        184.5897  19.6851  47.2867 H              1 RES1               0.0000
     22 H22        186.1305  18.6046  52.2762 H              1 RES1               0.0000
     23 H23        189.3295  20.7266  50.9487 H              1 RES1               0.0000
     24 H24        185.2337  23.5152  49.5081 H              1 RES1               0.0000
     25 H25        185.5815  22.4352  50.8562 H              1 RES1               0.0000
     26 H26        186.8814  22.9563  49.7866 H              1 RES1               0.0000
     27 H27        188.4326  16.6064  47.1010 H              1 RES1               0.0000
     28 H28        184.7012  17.9627  45.5463 H              1 RES1               0.0000
     29 H29        186.6176  16.4164  45.4438 H              1 RES1               0.0000
@<TRIPOS>BOND
    1    1    2 1     
    2    1    3 1     
    3    1    4 1     
    4    1    5 1     
    5    2    6 ar    
    6    2    7 ar    
    7    3    8 1     
    8    3    9 2     
    9    4   10 1     
   10    4   11 2     
   11    5   12 1     
   12    5   18 1     
   13    5   19 1     
   14    6   13 ar    
   15    6   20 1     
   16    7   14 ar    
   17    7   21 1     
   18    8   15 1     
   19    8   22 1     
   20   10   15 1     
   21   10   23 1     
   22   12   24 1     
   23   12   25 1     
   24   12   26 1     
   25   13   16 ar    
   26   13   27 1     
   27   14   16 ar    
   28   14   28 1     
   29   15   17 2     
   30   16   29 1     
@<TRIPOS>SUBSTRUCTURE
      1 RES1           1
@<TRIPOS>SET
DONOR_HYDROGENS      STATIC     ATOMS    <user>   **** ""
2 22 23
ATOM$RED        STATIC     ATOMS    COLORGROUP SYSTEM
2 22 23
@<TRIPOS>COMMENT
> <Gold.Version>
2022.3.0

> <Gold.Id.Protein>
unknown|4d1n_clean|pdb

> <Gold.Protein.RotatedTorsions>
[ 16977 16944 16943 16941 ] final   40.15 input   59.98 | X-H torsion
[ 18494 18452 18451 18449 ] final   -8.16 input   59.98 | X-H torsion
[ 18554 18521 18522 18523 ] final   16.17 input   91.55 | X-H torsion
[ 18707 18674 18675 18676 ] final -167.41 input  121.65 | X-H torsion
[ 18768 18733 18734 18735 ] final  108.63 input   95.18 | X-H torsion
[ 18950 18904 18905 18906 ] final -116.62 input   99.08 | X-H torsion
[ 19025 18997 18998 18999 ] final  107.64 input  121.68 | X-H torsion
[ 17185 17170 17171 17172 ] final  -84.99 input   47.05 | X-H torsion
[ 17233 17212 17213 17214 ] final -103.33 input  118.29 | X-H torsion
[ 18820 18805 18806 18807 ] final -131.47 input  116.09 | X-H torsion
[ 19094 19049 19050 19051 ] final -131.23 input   88.91 | X-H torsion
[ 18486 18441 18442 18443 ] final -171.48 input  100.68 | X-H torsion
[ 17293 17275 17276 17277 ] final  -44.85 input   51.25 | X-H torsion
[ 18289 18267 18268 18269 ] final  -39.04 input   31.65 | X-H torsion
[ 18324 18309 18310 18311 ] final   71.62 input   53.83 | X-H torsion
[ 18399 18347 18348 18349 ] final  120.12 input   27.99 | X-H torsion
[ 7521 7509 7510 7511 ] final -116.53 input   80.33 | X-H torsion
[ 7486 7448 7449 7450 ] final  103.45 input   99.31 | X-H torsion
[ 18600 18585 18586 18587 ] final   42.62 input  129.83 | X-H torsion
[ 10110 10088 10087 10084 ] final  -70.55 input   59.98 | X-H torsion
[ 18293 18272 18271 18268 ] final    0.04 input   59.99 | X-H torsion
[ 18650 18622 18620 18617 ] final   99.53 input   59.97 | X-H torsion
[ 18866 18836 18837 18838 ] final  136.16 input   87.55 | X-H torsion
[ 22436 22408 22409 22410 ] final  -69.88 input   59.22 | X-H torsion
[ 10146 10126 10127 10128 ] final -175.86 input   20.82 | X-H torsion
[ 18225 18192 18193 18194 ] final   44.05 input   40.98 | X-H torsion
[ 11813 11769 11770 11771 ] final  148.66 input   85.42 | X-H torsion
[ 16969 16933 16934 16935 ] final  111.15 input   88.91 | X-H torsion
[ 27198 18524 18523 18522 ] final   43.03 input    0.00 | X-H torsion
[ 27200 18619 18618 18617 ] final    5.75 input    0.00 | X-H torsion
[ 27203 18677 18676 18675 ] final -159.19 input    0.00 | X-H torsion
[ 27223 17119 17118 17117 ] final  -62.48 input    0.00 | X-H torsion
[ 27227 11596 11595 11594 ] final -160.46 input   -0.00 | X-H torsion
[ 27231 17044 17043 17042 ] final  -13.83 input    0.00 | X-H torsion
[ 27233 18736 18735 18734 ] final   39.65 input   -0.00 | X-H torsion
[ 27235 18588 18587 18586 ] final -101.57 input    0.00 | X-H torsion
[ 27238 18907 18906 18905 ] final -154.18 input    0.00 | X-H torsion
[ 27240 19000 18999 18998 ] final -159.08 input    0.00 | X-H torsion
[ 27243 17173 17172 17171 ] final  154.61 input    0.00 | X-H torsion
[ 27245 18350 18349 18348 ] final  127.92 input    0.00 | X-H torsion
[ 27248 11406 11405 11404 ] final -116.86 input   -0.00 | X-H torsion
[ 27250 18195 18194 18193 ] final  -13.00 input    0.00 | X-H torsion
[ 27254 17215 17214 17213 ] final   72.66 input   -0.00 | X-H torsion
[ 27260 18312 18311 18310 ] final  175.51 input   -0.00 | X-H torsion
[ 27262 18444 18443 18442 ] final  -64.83 input    0.00 | X-H torsion
[ 27265 18270 18269 18268 ] final   92.98 input    0.00 | X-H torsion
[ 27273 16936 16935 16934 ] final   54.84 input   -0.00 | X-H torsion

> <Gold.Protein.ActiveResidues>
 TRP414  CYS420  VAL421  GLY422  LEU460  SER462  ALA463  SER482  GLN483  ILE485 
 ARG486  TYR487  ASP500  ASN503  TRP566  TYR567  LEU569  PRO570  ALA571  VAL572 
 SER573  ASN574  PHE589  SER590  GLY591  TRP592  TYR593  MET594  GLY595  THR596 
 GLU597  ILE598  GLY599  VAL600  ARG601  ASP602  TYR603  ARG608  ILE653  VAL654 
 TRP683  PRO687  HEM750  H4B760 

> <Gold.Protein.RotatedAtoms>
  195.0816   11.7867   53.7614 H   0  0  0  0  0  0  0  0  0  0  0  0  # atno 7486 bound_to 7448
  195.4330    9.2091   55.2091 H   0  0  0  0  0  0  0  0  0  0  0  0  # atno 7521 bound_to 7509
  189.1226    2.8575   50.9219 H   0  0  0  0  0  0  0  0  0  0  0  0  # atno 10110 bound_to 10088
  187.3706    0.7850   47.6760 H   0  0  0  0  0  0  0  0  0  0  0  0  # atno 10146 bound_to 10126
  175.8927   16.7278   48.1193 H   0  0  0  0  0  0  0  0  0  0  0  0  # atno 11813 bound_to 11769
  176.4098   13.1208   52.9525 H   0  0  0  0  0  0  0  0  0  0  0  0  # atno 16969 bound_to 16933
  180.8447   14.4298   48.8981 H   0  0  0  0  0  0  0  0  0  0  0  0  # atno 16977 bound_to 16944
  184.0639   10.1774   47.9966 H   0  0  0  0  0  0  0  0  0  0  0  0  # atno 17185 bound_to 17170
  184.6001   10.7852   45.5258 H   0  0  0  0  0  0  0  0  0  0  0  0  # atno 17233 bound_to 17212
  186.4292   12.4036   42.2074 H   0  0  0  0  0  0  0  0  0  0  0  0  # atno 17293 bound_to 17275
  186.9417    8.1839   42.8643 H   0  0  0  0  0  0  0  0  0  0  0  0  # atno 18225 bound_to 18192
  187.9029    5.5721   45.8871 H   0  0  0  0  0  0  0  0  0  0  0  0  # atno 18289 bound_to 18267
  185.3798    3.9712   46.8260 H   0  0  0  0  0  0  0  0  0  0  0  0  # atno 18293 bound_to 18272
  187.0836    6.7902   49.6139 H   0  0  0  0  0  0  0  0  0  0  0  0  # atno 18324 bound_to 18309
  186.9234    5.1283   52.9535 H   0  0  0  0  0  0  0  0  0  0  0  0  # atno 18399 bound_to 18347
  184.6482    8.2197   54.3501 H   0  0  0  0  0  0  0  0  0  0  0  0  # atno 18486 bound_to 18441
  182.5464   14.3801   51.8328 H   0  0  0  0  0  0  0  0  0  0  0  0  # atno 18494 bound_to 18452
  186.4640   11.2728   56.4709 H   0  0  0  0  0  0  0  0  0  0  0  0  # atno 18554 bound_to 18521
  187.2135   12.5686   60.0997 H   0  0  0  0  0  0  0  0  0  0  0  0  # atno 18600 bound_to 18585
  189.4010   16.7472   58.8946 H   0  0  0  0  0  0  0  0  0  0  0  0  # atno 18650 bound_to 18622
  187.3980   15.9709   58.0742 H   0  0  0  0  0  0  0  0  0  0  0  0  # atno 18707 bound_to 18674
  184.0432   15.5674   57.4683 H   0  0  0  0  0  0  0  0  0  0  0  0  # atno 18768 bound_to 18733
  181.8344   17.1661   59.0452 H   0  0  0  0  0  0  0  0  0  0  0  0  # atno 18820 bound_to 18805
  184.7610   19.0107   60.5528 H   0  0  0  0  0  0  0  0  0  0  0  0  # atno 18866 bound_to 18836
  185.4350   21.5909   58.4704 H   0  0  0  0  0  0  0  0  0  0  0  0  # atno 18950 bound_to 18904
  183.3974   19.8857   55.8749 H   0  0  0  0  0  0  0  0  0  0  0  0  # atno 19025 bound_to 18997
  180.4495   21.0448   56.0475 H   0  0  0  0  0  0  0  0  0  0  0  0  # atno 19094 bound_to 19049
  185.5301    7.6182   60.8338 H   0  0  0  0  0  0  0  0  0  0  0  0  # atno 22436 bound_to 22408
  180.8441   15.1597   50.3522 LP  0  0  0  0  0  0  0  0  0  0  0  0  # atno 27193 bound_to 16944
  179.8513   15.6896   49.1688 LP  0  0  0  0  0  0  0  0  0  0  0  0  # atno 27194 bound_to 16944
  181.0080   13.9845   52.1876 LP  0  0  0  0  0  0  0  0  0  0  0  0  # atno 27195 bound_to 18452
  181.8468   13.1108   51.0922 LP  0  0  0  0  0  0  0  0  0  0  0  0  # atno 27196 bound_to 18452
  187.5214    9.8894   56.6386 LP  0  0  0  0  0  0  0  0  0  0  0  0  # atno 27197 bound_to 18521
  186.0598   13.0811   57.0130 LP  0  0  0  0  0  0  0  0  0  0  0  0  # atno 27198 bound_to 18524
  186.2456   14.2311   58.2948 LP  0  0  0  0  0  0  0  0  0  0  0  0  # atno 27199 bound_to 18524
  186.1955   18.9631   59.3537 LP  0  0  0  0  0  0  0  0  0  0  0  0  # atno 27200 bound_to 18619
  185.8052   18.5932   57.7072 LP  0  0  0  0  0  0  0  0  0  0  0  0  # atno 27201 bound_to 18619
  185.7203   16.1629   58.5172 LP  0  0  0  0  0  0  0  0  0  0  0  0  # atno 27202 bound_to 18674
  183.6575   18.7357   56.0334 LP  0  0  0  0  0  0  0  0  0  0  0  0  # atno 27203 bound_to 18677
  185.0659   18.4700   55.0609 LP  0  0  0  0  0  0  0  0  0  0  0  0  # atno 27204 bound_to 18677
  184.4904   17.1143   56.7809 LP  0  0  0  0  0  0  0  0  0  0  0  0  # atno 27209 bound_to 18733
  184.7960   20.1320   57.7552 LP  0  0  0  0  0  0  0  0  0  0  0  0  # atno 27210 bound_to 18904
  183.6577   21.5636   55.4660 LP  0  0  0  0  0  0  0  0  0  0  0  0  # atno 27211 bound_to 18997
  185.4921    8.9289   49.1382 LP  0  0  0  0  0  0  0  0  0  0  0  0  # atno 27223 bound_to 17119
  184.5227    7.7562   48.3107 LP  0  0  0  0  0  0  0  0  0  0  0  0  # atno 27224 bound_to 17119
  182.4096   10.1477   47.4338 LP  0  0  0  0  0  0  0  0  0  0  0  0  # atno 27225 bound_to 17170
  186.0746    9.8505   45.4006 LP  0  0  0  0  0  0  0  0  0  0  0  0  # atno 27226 bound_to 17212
  179.0568   14.0354   47.5005 LP  0  0  0  0  0  0  0  0  0  0  0  0  # atno 27227 bound_to 11596
  179.6624   12.5935   46.7560 LP  0  0  0  0  0  0  0  0  0  0  0  0  # atno 27228 bound_to 11596
  179.7226    9.0959   48.7842 LP  0  0  0  0  0  0  0  0  0  0  0  0  # atno 27231 bound_to 17044
  180.9253   10.3343   48.9256 LP  0  0  0  0  0  0  0  0  0  0  0  0  # atno 27232 bound_to 17044
  180.9493   19.1184   57.4281 LP  0  0  0  0  0  0  0  0  0  0  0  0  # atno 27233 bound_to 18736
  182.1100   19.8669   58.4734 LP  0  0  0  0  0  0  0  0  0  0  0  0  # atno 27234 bound_to 18736
  184.0800   15.6470   59.0958 LP  0  0  0  0  0  0  0  0  0  0  0  0  # atno 27235 bound_to 18588
  183.7039   15.6443   60.7865 LP  0  0  0  0  0  0  0  0  0  0  0  0  # atno 27236 bound_to 18588
  183.5542   17.4774   59.1517 LP  0  0  0  0  0  0  0  0  0  0  0  0  # atno 27237 bound_to 18805
  182.3035   23.1345   55.4856 LP  0  0  0  0  0  0  0  0  0  0  0  0  # atno 27238 bound_to 18907
  183.9158   23.7454   55.3203 LP  0  0  0  0  0  0  0  0  0  0  0  0  # atno 27239 bound_to 18907
  179.3955   22.9976   55.4547 LP  0  0  0  0  0  0  0  0  0  0  0  0  # atno 27240 bound_to 19000
  179.6471   22.0411   54.0329 LP  0  0  0  0  0  0  0  0  0  0  0  0  # atno 27241 bound_to 19000
  181.7145   21.4454   57.1858 LP  0  0  0  0  0  0  0  0  0  0  0  0  # atno 27242 bound_to 19049
  183.6498   11.5323   43.7409 LP  0  0  0  0  0  0  0  0  0  0  0  0  # atno 27243 bound_to 17173
  182.7435   10.0625   43.8760 LP  0  0  0  0  0  0  0  0  0  0  0  0  # atno 27244 bound_to 17173
  187.3532    9.0240   53.9393 LP  0  0  0  0  0  0  0  0  0  0  0  0  # atno 27245 bound_to 18350
  187.9695    7.4846   54.4399 LP  0  0  0  0  0  0  0  0  0  0  0  0  # atno 27246 bound_to 18350
  185.4327    7.5479   55.7599 LP  0  0  0  0  0  0  0  0  0  0  0  0  # atno 27247 bound_to 18441
  184.8344   13.6107   42.3253 LP  0  0  0  0  0  0  0  0  0  0  0  0  # atno 27248 bound_to 11406
  185.3552   15.1106   43.0176 LP  0  0  0  0  0  0  0  0  0  0  0  0  # atno 27249 bound_to 11406
  186.9536    8.6119   44.6108 LP  0  0  0  0  0  0  0  0  0  0  0  0  # atno 27250 bound_to 18195
  186.1196    8.1452   46.0553 LP  0  0  0  0  0  0  0  0  0  0  0  0  # atno 27251 bound_to 18195
  186.1428    9.3022   42.8115 LP  0  0  0  0  0  0  0  0  0  0  0  0  # atno 27254 bound_to 17215
  187.4430   10.1467   42.0392 LP  0  0  0  0  0  0  0  0  0  0  0  0  # atno 27255 bound_to 17215
  184.7843   12.0396   42.6519 LP  0  0  0  0  0  0  0  0  0  0  0  0  # atno 27256 bound_to 17275
  186.3114    5.7491   45.1898 LP  0  0  0  0  0  0  0  0  0  0  0  0  # atno 27257 bound_to 18267
  186.7257    5.3002   48.7661 LP  0  0  0  0  0  0  0  0  0  0  0  0  # atno 27258 bound_to 18309
  186.6330    6.6205   52.0806 LP  0  0  0  0  0  0  0  0  0  0  0  0  # atno 27259 bound_to 18347
  184.2790    4.9905   52.2692 LP  0  0  0  0  0  0  0  0  0  0  0  0  # atno 27260 bound_to 18312
  184.8012    4.3758   50.7364 LP  0  0  0  0  0  0  0  0  0  0  0  0  # atno 27261 bound_to 18312
  185.4014    8.7814   58.3601 LP  0  0  0  0  0  0  0  0  0  0  0  0  # atno 27262 bound_to 18444
  187.0028    8.2450   57.9755 LP  0  0  0  0  0  0  0  0  0  0  0  0  # atno 27263 bound_to 18444
  195.1230    9.0557   53.5001 LP  0  0  0  0  0  0  0  0  0  0  0  0  # atno 27264 bound_to 7509
  188.3032    3.8809   47.9328 LP  0  0  0  0  0  0  0  0  0  0  0  0  # atno 27265 bound_to 18270
  186.7058    3.2944   48.2560 LP  0  0  0  0  0  0  0  0  0  0  0  0  # atno 27266 bound_to 18270
  196.4388   10.9322   53.0585 LP  0  0  0  0  0  0  0  0  0  0  0  0  # atno 27267 bound_to 7448
  186.0113   11.4309   59.5403 LP  0  0  0  0  0  0  0  0  0  0  0  0  # atno 27268 bound_to 18585
  190.3844    1.8730   51.2168 LP  0  0  0  0  0  0  0  0  0  0  0  0  # atno 27269 bound_to 10088
  188.8668    1.3906   51.5785 LP  0  0  0  0  0  0  0  0  0  0  0  0  # atno 27270 bound_to 10088
  183.9736    4.4507   46.1625 LP  0  0  0  0  0  0  0  0  0  0  0  0  # atno 27271 bound_to 18272
  184.0399    4.0548   47.7454 LP  0  0  0  0  0  0  0  0  0  0  0  0  # atno 27272 bound_to 18272
  178.3099   11.4095   54.6707 LP  0  0  0  0  0  0  0  0  0  0  0  0  # atno 27273 bound_to 16936
  179.3472   10.5437   53.5870 LP  0  0  0  0  0  0  0  0  0  0  0  0  # atno 27274 bound_to 16936

> <Gold.Score>
     Fitness  S(hb_ext) S(vdw_ext)  S(hb_int)    S(int)      intcor
     31.52       6.38      18.71       0.00      -0.58      -0.76

> <Gold.Goldscore.Fitness>
31.5233

> <Gold.Goldscore.Internal.Vdw>
-0.5763

> <Gold.Goldscore.Internal.Torsion>
-0.7656

> <Gold.Goldscore.External.Vdw>
18.7082

> <Gold.Goldscore.Internal.HBond>
0.0000

> <Gold.Goldscore.External.HBond>
6.3829

> <Gold.Goldscore.Internal.Correction>
-0.7585

> <Gold.Goldscore.Hbonds>
donor molecule, donor type, donor heavy atom, donor atom, acceptor molecule, acceptor atom, score
      P1  H 19333 19370       L1     9  0.06
      L1  H    10    23       P1 27088  1.00

> <Gold.Goldscore.Internal.Vdw.Weighted>
-0.5763

> <Gold.Goldscore.Internal.Torsion.Weighted>
-0.7656

> <Gold.Goldscore.External.Vdw.Weighted>
25.7237

> <Gold.Goldscore.Internal.HBond.Weighted>
0.0000

> <Gold.Goldscore.External.HBond.Weighted>
6.3829

> <Gold.Goldscore.Internal.Correction.Weighted>
-0.7585

> <Gold.Rescore>
     Score     S(PLP)   S(hbond)     S(cho)   S(metal)  DE(clash)   DE(tors)     intcor
     23.12     -19.36       1.67       0.00       0.00       0.00       0.63       ----

> <Gold.PLP.Fitness>
23.1183

> <Gold.PLP.PLP>
-19.3617

> <Gold.PLP.part.hbond>
-3.0000

> <Gold.PLP.part.metal>
0.0000

> <Gold.PLP.part.buried>
-4.8470

> <Gold.PLP.part.nonpolar>
-11.5338

> <Gold.PLP.part.repulsive>
0.9032

> <Gold.PLP.ligand.clash>
0.0000

> <Gold.PLP.ligand.torsion>
0.6279

> <Gold.PLP.Chemscore.Hbond>
1.6708

> <Gold.PLP.Chemscore.CHOScore>
0.0000

> <Gold.PLP.Chemscore.Metal>
0.0000

> <Gold.Chemscore.Hbonds>
donor molecule, donor type, donor heavy atom, donor atom, acceptor molecule, acceptor atom, score
      L1  H    10    23       P1 27088  1.00
      P1  H 19333 19370       L1     9  0.82

> <Gold.PLP.Chemscore.Internal.Correction>
   9.000000E+99

