#       Name:                CT1002167954
#       Creating user name   hitesit
#       Creation time:       Sun Apr 16 22:56:32 2023


#       File generated by GOLD software.
#

@<TRIPOS>MOLECULE
CT1002167954|ligand_prepared|mol2|1|dock9
    29    30     1
SMALL
NO_CHARGES


@<TRIPOS>ATOM
      1 C1         188.3001  11.1213  50.3628 C.3            1 RES1               0.0000
      2 C2         188.5184  12.4083  49.5413 C.ar           1 RES1               0.0000
      3 C3         187.3984  10.2233  49.5208 C.2            1 RES1               0.0000
      4 C4         189.6859  10.5418  50.6243 C.2            1 RES1               0.0000
      5 C5         187.6167  11.3607  51.7293 C.3            1 RES1               0.0000
      6 C6         189.5718  12.5012  48.6365 C.ar           1 RES1               0.0000
      7 C7         187.6748  13.5078  49.6751 C.ar           1 RES1               0.0000
      8 N8         187.9693   9.1410  48.9188 N.am           1 RES1               0.0000
      9 O9         186.2129  10.4831  49.3552 O.2            1 RES1               0.0000
     10 N10        189.9958   9.3357  50.0525 N.am           1 RES1               0.0000
     11 O11        190.5180  11.1267  51.3067 O.2            1 RES1               0.0000
     12 C12        187.7928  10.2139  52.7121 C.3            1 RES1               0.0000
     13 C13        189.7728  13.6506  47.8903 C.ar           1 RES1               0.0000
     14 C14        187.8778  14.6564  48.9281 C.ar           1 RES1               0.0000
     15 C15        189.2113   8.6237  49.1865 C.2            1 RES1               0.0000
     16 C16        188.9258  14.7287  48.0352 C.ar           1 RES1               0.0000
     17 O17        189.5815   7.5731  48.6704 O.2            1 RES1               0.0000
     18 H18        188.0291  12.2743  52.1750 H              1 RES1               0.0000
     19 H19        186.5444  11.5227  51.5643 H              1 RES1               0.0000
     20 H20        190.2500  11.6639  48.5108 H              1 RES1               0.0000
     21 H21        186.8445  13.4739  50.3722 H              1 RES1               0.0000
     22 H22        187.4223   8.6729  48.2032 H              1 RES1               0.0000
     23 H23        190.8946   8.9310  50.2949 H              1 RES1               0.0000
     24 H24        187.2943  10.4332  53.6540 H              1 RES1               0.0000
     25 H25        187.3711   9.2944  52.3116 H              1 RES1               0.0000
     26 H26        188.8471  10.0415  52.9188 H              1 RES1               0.0000
     27 H27        190.5999  13.7030  47.1900 H              1 RES1               0.0000
     28 H28        187.2091  15.5027  49.0458 H              1 RES1               0.0000
     29 H29        189.0833  15.6288  47.4503 H              1 RES1               0.0000
@<TRIPOS>BOND
    1    1    2 1     
    2    1    3 1     
    3    1    4 1     
    4    1    5 1     
    5    2    6 ar    
    6    2    7 ar    
    7    3    8 1     
    8    3    9 2     
    9    4   10 1     
   10    4   11 2     
   11    5   12 1     
   12    5   18 1     
   13    5   19 1     
   14    6   13 ar    
   15    6   20 1     
   16    7   14 ar    
   17    7   21 1     
   18    8   15 1     
   19    8   22 1     
   20   10   15 1     
   21   10   23 1     
   22   12   24 1     
   23   12   25 1     
   24   12   26 1     
   25   13   16 ar    
   26   13   27 1     
   27   14   16 ar    
   28   14   28 1     
   29   15   17 2     
   30   16   29 1     
@<TRIPOS>SUBSTRUCTURE
      1 RES1           1
@<TRIPOS>SET
DONOR_HYDROGENS      STATIC     ATOMS    <user>   **** ""
2 22 23
ATOM$RED        STATIC     ATOMS    COLORGROUP SYSTEM
2 22 23
@<TRIPOS>COMMENT
> <Gold.Version>
2022.3.0

> <Gold.Id.Protein>
unknown|4d1n_clean|pdb

> <Gold.Protein.RotatedTorsions>
[ 16977 16944 16943 16941 ] final   50.67 input   59.98 | X-H torsion
[ 18494 18452 18451 18449 ] final  -40.03 input   59.98 | X-H torsion
[ 18554 18521 18522 18523 ] final -110.70 input   91.55 | X-H torsion
[ 18707 18674 18675 18676 ] final  -95.60 input  121.65 | X-H torsion
[ 18768 18733 18734 18735 ] final  151.52 input   95.18 | X-H torsion
[ 18950 18904 18905 18906 ] final  134.01 input   99.08 | X-H torsion
[ 19025 18997 18998 18999 ] final   97.83 input  121.68 | X-H torsion
[ 17185 17170 17171 17172 ] final -105.14 input   47.05 | X-H torsion
[ 17233 17212 17213 17214 ] final   77.61 input  118.29 | X-H torsion
[ 18820 18805 18806 18807 ] final -106.55 input  116.09 | X-H torsion
[ 19094 19049 19050 19051 ] final   45.14 input   88.91 | X-H torsion
[ 18486 18441 18442 18443 ] final  -55.08 input  100.68 | X-H torsion
[ 17293 17275 17276 17277 ] final -140.18 input   51.25 | X-H torsion
[ 18289 18267 18268 18269 ] final  -93.95 input   31.65 | X-H torsion
[ 18324 18309 18310 18311 ] final  -27.63 input   53.83 | X-H torsion
[ 18399 18347 18348 18349 ] final  123.96 input   27.99 | X-H torsion
[ 7521 7509 7510 7511 ] final   52.05 input   80.33 | X-H torsion
[ 7486 7448 7449 7450 ] final  -87.89 input   99.31 | X-H torsion
[ 18600 18585 18586 18587 ] final  -62.47 input  129.83 | X-H torsion
[ 10110 10088 10087 10084 ] final   96.45 input   59.98 | X-H torsion
[ 18293 18272 18271 18268 ] final  -45.26 input   59.99 | X-H torsion
[ 18650 18622 18620 18617 ] final  144.54 input   59.97 | X-H torsion
[ 18866 18836 18837 18838 ] final   72.81 input   87.55 | X-H torsion
[ 22436 22408 22409 22410 ] final  129.42 input   59.22 | X-H torsion
[ 10146 10126 10127 10128 ] final -173.28 input   20.82 | X-H torsion
[ 18225 18192 18193 18194 ] final  -81.38 input   40.98 | X-H torsion
[ 11813 11769 11770 11771 ] final  126.31 input   85.42 | X-H torsion
[ 16969 16933 16934 16935 ] final -135.88 input   88.91 | X-H torsion
[ 27198 18524 18523 18522 ] final   -7.08 input    0.00 | X-H torsion
[ 27200 18619 18618 18617 ] final  -75.01 input    0.00 | X-H torsion
[ 27203 18677 18676 18675 ] final -102.50 input    0.00 | X-H torsion
[ 27223 17119 17118 17117 ] final  -54.88 input    0.00 | X-H torsion
[ 27227 11596 11595 11594 ] final  -89.81 input   -0.00 | X-H torsion
[ 27231 17044 17043 17042 ] final -122.82 input    0.00 | X-H torsion
[ 27233 18736 18735 18734 ] final  141.06 input   -0.00 | X-H torsion
[ 27235 18588 18587 18586 ] final  -27.90 input    0.00 | X-H torsion
[ 27238 18907 18906 18905 ] final   -2.16 input    0.00 | X-H torsion
[ 27240 19000 18999 18998 ] final -130.38 input    0.00 | X-H torsion
[ 27243 17173 17172 17171 ] final   99.93 input    0.00 | X-H torsion
[ 27245 18350 18349 18348 ] final   32.33 input    0.00 | X-H torsion
[ 27248 11406 11405 11404 ] final -129.37 input   -0.00 | X-H torsion
[ 27250 18195 18194 18193 ] final   24.11 input    0.00 | X-H torsion
[ 27254 17215 17214 17213 ] final    5.27 input   -0.00 | X-H torsion
[ 27260 18312 18311 18310 ] final  171.30 input   -0.00 | X-H torsion
[ 27262 18444 18443 18442 ] final  -44.20 input    0.00 | X-H torsion
[ 27265 18270 18269 18268 ] final   50.04 input    0.00 | X-H torsion
[ 27273 16936 16935 16934 ] final   71.70 input   -0.00 | X-H torsion

> <Gold.Protein.ActiveResidues>
 TRP414  CYS420  VAL421  GLY422  LEU460  SER462  ALA463  SER482  GLN483  ILE485 
 ARG486  TYR487  ASP500  ASN503  TRP566  TYR567  LEU569  PRO570  ALA571  VAL572 
 SER573  ASN574  PHE589  SER590  GLY591  TRP592  TYR593  MET594  GLY595  THR596 
 GLU597  ILE598  GLY599  VAL600  ARG601  ASP602  TYR603  ARG608  ILE653  VAL654 
 TRP683  PRO687  HEM750  H4B760 

> <Gold.Protein.RotatedAtoms>
  196.5572   11.0572   53.1016 H   0  0  0  0  0  0  0  0  0  0  0  0  # atno 7486 bound_to 7448
  195.2876    9.0006   53.4837 H   0  0  0  0  0  0  0  0  0  0  0  0  # atno 7521 bound_to 7509
  189.5871    1.1843   51.5902 H   0  0  0  0  0  0  0  0  0  0  0  0  # atno 10110 bound_to 10088
  187.4090    0.7755   47.6733 H   0  0  0  0  0  0  0  0  0  0  0  0  # atno 10146 bound_to 10126
  176.0644   17.0240   48.1575 H   0  0  0  0  0  0  0  0  0  0  0  0  # atno 11813 bound_to 11769
  175.2896   12.6463   53.7954 H   0  0  0  0  0  0  0  0  0  0  0  0  # atno 16969 bound_to 16933
  180.7353   14.4963   48.7839 H   0  0  0  0  0  0  0  0  0  0  0  0  # atno 16977 bound_to 16944
  183.9709    9.9073   48.1160 H   0  0  0  0  0  0  0  0  0  0  0  0  # atno 17185 bound_to 17170
  186.1110    9.8560   45.3991 H   0  0  0  0  0  0  0  0  0  0  0  0  # atno 17233 bound_to 17212
  185.7737   11.4115   42.7120 H   0  0  0  0  0  0  0  0  0  0  0  0  # atno 17293 bound_to 17275
  186.0900    7.0001   42.3262 H   0  0  0  0  0  0  0  0  0  0  0  0  # atno 18225 bound_to 18192
  187.6838    6.3142   45.6359 H   0  0  0  0  0  0  0  0  0  0  0  0  # atno 18289 bound_to 18267
  185.0820    4.1885   46.2065 H   0  0  0  0  0  0  0  0  0  0  0  0  # atno 18293 bound_to 18272
  186.0290    5.9750   49.3550 H   0  0  0  0  0  0  0  0  0  0  0  0  # atno 18324 bound_to 18309
  186.8788    5.1035   52.9219 H   0  0  0  0  0  0  0  0  0  0  0  0  # atno 18399 bound_to 18347
  185.9161    7.7374   54.9990 H   0  0  0  0  0  0  0  0  0  0  0  0  # atno 18486 bound_to 18441
  182.1802   14.5610   52.1453 H   0  0  0  0  0  0  0  0  0  0  0  0  # atno 18494 bound_to 18452
  186.8137    9.8046   56.9621 H   0  0  0  0  0  0  0  0  0  0  0  0  # atno 18554 bound_to 18521
  186.4178   12.2446   58.9908 H   0  0  0  0  0  0  0  0  0  0  0  0  # atno 18600 bound_to 18585
  189.8985   16.7765   59.4094 H   0  0  0  0  0  0  0  0  0  0  0  0  # atno 18650 bound_to 18622
  186.9586   16.8389   58.4203 H   0  0  0  0  0  0  0  0  0  0  0  0  # atno 18707 bound_to 18674
  184.0138   15.5564   56.8181 H   0  0  0  0  0  0  0  0  0  0  0  0  # atno 18768 bound_to 18733
  181.8741   17.4855   58.8347 H   0  0  0  0  0  0  0  0  0  0  0  0  # atno 18820 bound_to 18805
  184.6336   19.0264   59.6318 H   0  0  0  0  0  0  0  0  0  0  0  0  # atno 18866 bound_to 18836
  185.7789   20.3332   57.8646 H   0  0  0  0  0  0  0  0  0  0  0  0  # atno 18950 bound_to 18904
  183.3370   19.9395   56.0023 H   0  0  0  0  0  0  0  0  0  0  0  0  # atno 19025 bound_to 18997
  181.7332   21.5018   57.1763 H   0  0  0  0  0  0  0  0  0  0  0  0  # atno 19094 bound_to 19049
  186.5690    7.1924   59.5315 H   0  0  0  0  0  0  0  0  0  0  0  0  # atno 22436 bound_to 22408
  180.9437   15.0254   50.3083 LP  0  0  0  0  0  0  0  0  0  0  0  0  # atno 27193 bound_to 16944
  179.8619   15.7568   49.3277 LP  0  0  0  0  0  0  0  0  0  0  0  0  # atno 27194 bound_to 16944
  180.9131   13.5723   51.8891 LP  0  0  0  0  0  0  0  0  0  0  0  0  # atno 27195 bound_to 18452
  182.3103   13.3409   51.0761 LP  0  0  0  0  0  0  0  0  0  0  0  0  # atno 27196 bound_to 18452
  187.1816   11.3158   56.1615 LP  0  0  0  0  0  0  0  0  0  0  0  0  # atno 27197 bound_to 18521
  186.7242   13.3885   57.0608 LP  0  0  0  0  0  0  0  0  0  0  0  0  # atno 27198 bound_to 18524
  185.5812   13.9237   58.2471 LP  0  0  0  0  0  0  0  0  0  0  0  0  # atno 27199 bound_to 18524
  185.2239   18.6456   58.8905 LP  0  0  0  0  0  0  0  0  0  0  0  0  # atno 27200 bound_to 18619
  186.7767   18.9107   58.1705 LP  0  0  0  0  0  0  0  0  0  0  0  0  # atno 27201 bound_to 18619
  186.1522   15.3097   58.1771 LP  0  0  0  0  0  0  0  0  0  0  0  0  # atno 27202 bound_to 18674
  184.3703   19.0620   56.2813 LP  0  0  0  0  0  0  0  0  0  0  0  0  # atno 27203 bound_to 18677
  184.3531   18.1437   54.8129 LP  0  0  0  0  0  0  0  0  0  0  0  0  # atno 27204 bound_to 18677
  184.5188   17.1249   57.4094 LP  0  0  0  0  0  0  0  0  0  0  0  0  # atno 27209 bound_to 18733
  184.4583   21.3670   58.3500 LP  0  0  0  0  0  0  0  0  0  0  0  0  # atno 27210 bound_to 18904
  183.7169   21.5109   55.3412 LP  0  0  0  0  0  0  0  0  0  0  0  0  # atno 27211 bound_to 18997
  185.4402    8.8929   49.2341 LP  0  0  0  0  0  0  0  0  0  0  0  0  # atno 27223 bound_to 17119
  184.5746    7.7922   48.2148 LP  0  0  0  0  0  0  0  0  0  0  0  0  # atno 27224 bound_to 17119
  182.5003   10.4112   47.3173 LP  0  0  0  0  0  0  0  0  0  0  0  0  # atno 27225 bound_to 17170
  184.6116   10.7502   45.5232 LP  0  0  0  0  0  0  0  0  0  0  0  0  # atno 27226 bound_to 17212
  178.9734   13.1109   47.8762 LP  0  0  0  0  0  0  0  0  0  0  0  0  # atno 27227 bound_to 11596
  179.7457   13.5180   46.3803 LP  0  0  0  0  0  0  0  0  0  0  0  0  # atno 27228 bound_to 11596
  180.9645    9.5511   48.2955 LP  0  0  0  0  0  0  0  0  0  0  0  0  # atno 27231 bound_to 17044
  179.6835    9.8791   49.4142 LP  0  0  0  0  0  0  0  0  0  0  0  0  # atno 27232 bound_to 17044
  181.1130   19.4754   58.7097 LP  0  0  0  0  0  0  0  0  0  0  0  0  # atno 27233 bound_to 18736
  181.9464   19.5099   57.1918 LP  0  0  0  0  0  0  0  0  0  0  0  0  # atno 27234 bound_to 18736
  183.4946   14.9548   59.6022 LP  0  0  0  0  0  0  0  0  0  0  0  0  # atno 27235 bound_to 18588
  184.2894   16.3365   60.2800 LP  0  0  0  0  0  0  0  0  0  0  0  0  # atno 27236 bound_to 18588
  183.5159   17.1691   59.3548 LP  0  0  0  0  0  0  0  0  0  0  0  0  # atno 27237 bound_to 18805
  183.8299   23.7950   55.7272 LP  0  0  0  0  0  0  0  0  0  0  0  0  # atno 27238 bound_to 18907
  182.3893   23.0849   55.0787 LP  0  0  0  0  0  0  0  0  0  0  0  0  # atno 27239 bound_to 18907
  179.7061   23.2035   55.2416 LP  0  0  0  0  0  0  0  0  0  0  0  0  # atno 27240 bound_to 19000
  179.3366   21.8352   54.2460 LP  0  0  0  0  0  0  0  0  0  0  0  0  # atno 27241 bound_to 19000
  180.4629   20.9998   56.0852 LP  0  0  0  0  0  0  0  0  0  0  0  0  # atno 27242 bound_to 19049
  183.0461   11.5217   44.2587 LP  0  0  0  0  0  0  0  0  0  0  0  0  # atno 27243 bound_to 17173
  183.3471   10.0731   43.3582 LP  0  0  0  0  0  0  0  0  0  0  0  0  # atno 27244 bound_to 17173
  187.6414    7.8953   53.4017 LP  0  0  0  0  0  0  0  0  0  0  0  0  # atno 27245 bound_to 18350
  187.6813    8.6133   54.9775 LP  0  0  0  0  0  0  0  0  0  0  0  0  # atno 27246 bound_to 18350
  184.1959    8.0183   55.1270 LP  0  0  0  0  0  0  0  0  0  0  0  0  # atno 27247 bound_to 18441
  184.7823   13.5709   42.5023 LP  0  0  0  0  0  0  0  0  0  0  0  0  # atno 27248 bound_to 11406
  185.4074   15.1504   42.8406 LP  0  0  0  0  0  0  0  0  0  0  0  0  # atno 27249 bound_to 11406
  186.4333    8.4858   44.4799 LP  0  0  0  0  0  0  0  0  0  0  0  0  # atno 27250 bound_to 18195
  186.6400    8.2713   46.1862 LP  0  0  0  0  0  0  0  0  0  0  0  0  # atno 27251 bound_to 18195
  186.9521    9.5602   43.2606 LP  0  0  0  0  0  0  0  0  0  0  0  0  # atno 27254 bound_to 17215
  186.6337    9.8887   41.5901 LP  0  0  0  0  0  0  0  0  0  0  0  0  # atno 27255 bound_to 17215
  185.4358   13.0258   42.1503 LP  0  0  0  0  0  0  0  0  0  0  0  0  # atno 27256 bound_to 17275
  186.5261    5.0219   45.4359 LP  0  0  0  0  0  0  0  0  0  0  0  0  # atno 27257 bound_to 18267
  187.7434    6.0869   49.0159 LP  0  0  0  0  0  0  0  0  0  0  0  0  # atno 27258 bound_to 18309
  186.6757    6.6443   52.1109 LP  0  0  0  0  0  0  0  0  0  0  0  0  # atno 27259 bound_to 18347
  184.2962    4.9348   52.2947 LP  0  0  0  0  0  0  0  0  0  0  0  0  # atno 27260 bound_to 18312
  184.7840    4.4316   50.7108 LP  0  0  0  0  0  0  0  0  0  0  0  0  # atno 27261 bound_to 18312
  185.3383    8.5690   58.1430 LP  0  0  0  0  0  0  0  0  0  0  0  0  # atno 27262 bound_to 18444
  187.0660    8.4575   58.1926 LP  0  0  0  0  0  0  0  0  0  0  0  0  # atno 27263 bound_to 18444
  195.2669    9.2621   55.2075 LP  0  0  0  0  0  0  0  0  0  0  0  0  # atno 27264 bound_to 7509
  187.9505    3.8660   47.4062 LP  0  0  0  0  0  0  0  0  0  0  0  0  # atno 27265 bound_to 18270
  187.0585    3.3093   48.7826 LP  0  0  0  0  0  0  0  0  0  0  0  0  # atno 27266 bound_to 18270
  195.0149   11.6361   53.6953 LP  0  0  0  0  0  0  0  0  0  0  0  0  # atno 27267 bound_to 7448
  186.7889   11.7476   60.6241 LP  0  0  0  0  0  0  0  0  0  0  0  0  # atno 27268 bound_to 18585
  188.5868    2.3991   51.1758 LP  0  0  0  0  0  0  0  0  0  0  0  0  # atno 27269 bound_to 10088
  190.1967    2.5491   50.9468 LP  0  0  0  0  0  0  0  0  0  0  0  0  # atno 27270 bound_to 10088
  183.5674    4.3996   46.7623 LP  0  0  0  0  0  0  0  0  0  0  0  0  # atno 27271 bound_to 18272
  184.7460    3.8870   47.7697 LP  0  0  0  0  0  0  0  0  0  0  0  0  # atno 27272 bound_to 18272
  178.3515   11.2047   54.8147 LP  0  0  0  0  0  0  0  0  0  0  0  0  # atno 27273 bound_to 16936
  179.3056   10.7485   53.4430 LP  0  0  0  0  0  0  0  0  0  0  0  0  # atno 27274 bound_to 16936

> <Gold.Score>
     Fitness  S(hb_ext) S(vdw_ext)  S(hb_int)    S(int)      intcor
     38.91       5.55      24.91       0.00      -0.89      -0.76

> <Gold.Goldscore.Fitness>
38.9094

> <Gold.Goldscore.Internal.Vdw>
-0.7781

> <Gold.Goldscore.Internal.Torsion>
-0.8678

> <Gold.Goldscore.External.Vdw>
24.9068

> <Gold.Goldscore.Internal.HBond>
0.0000

> <Gold.Goldscore.External.HBond>
5.5499

> <Gold.Goldscore.Internal.Correction>
-0.7585

> <Gold.Goldscore.Hbonds>
donor molecule, donor type, donor heavy atom, donor atom, acceptor molecule, acceptor atom, score
      P1  H 17170 17185       L1     9  0.14
      P1  M 26842 27275       L1    11  0.53

> <Gold.Goldscore.Internal.Vdw.Weighted>
-0.7781

> <Gold.Goldscore.Internal.Torsion.Weighted>
-0.8678

> <Gold.Goldscore.External.Vdw.Weighted>
34.2468

> <Gold.Goldscore.Internal.HBond.Weighted>
0.0000

> <Gold.Goldscore.External.HBond.Weighted>
5.5499

> <Gold.Goldscore.Internal.Correction.Weighted>
-0.7585

> <Gold.Rescore>
     Score     S(PLP)   S(hbond)     S(cho)   S(metal)  DE(clash)   DE(tors)     intcor
     30.02     -26.47       0.14       0.00       1.00       1.70       0.58       ----

> <Gold.PLP.Fitness>
30.0226

> <Gold.PLP.PLP>
-26.4706

> <Gold.PLP.part.hbond>
-2.5190

> <Gold.PLP.part.metal>
-1.0000

> <Gold.PLP.part.buried>
28.6783

> <Gold.PLP.part.nonpolar>
-55.1354

> <Gold.PLP.part.repulsive>
2.1430

> <Gold.PLP.ligand.clash>
1.7001

> <Gold.PLP.ligand.torsion>
0.5798

> <Gold.PLP.Chemscore.Hbond>
0.1373

> <Gold.PLP.Chemscore.CHOScore>
0.0000

> <Gold.PLP.Chemscore.Metal>
1.0000

> <Gold.Chemscore.Hbonds>
donor molecule, donor type, donor heavy atom, donor atom, acceptor molecule, acceptor atom, score
      P1  M 26842 26842       L1    11  1.00

> <Gold.PLP.Chemscore.Internal.Correction>
   9.000000E+99

