#       Name:                CT1002167954
#       Creating user name   hitesit
#       Creation time:       Sun Apr 16 22:56:28 2023


#       File generated by GOLD software.
#

@<TRIPOS>MOLECULE
CT1002167954|ligand_prepared|mol2|1|dock4
    29    30     1
SMALL
NO_CHARGES


@<TRIPOS>ATOM
      1 C1         185.5407  17.0215  50.9360 C.3            1 RES1               0.0000
      2 C2         186.0222  15.7001  50.3028 C.ar           1 RES1               0.0000
      3 C3         185.1704  17.9421  49.7768 C.2            1 RES1               0.0000
      4 C4         184.3687  16.6587  51.8412 C.2            1 RES1               0.0000
      5 C5         186.6117  17.7267  51.8005 C.3            1 RES1               0.0000
      6 C6         187.2431  15.6364  49.6379 C.ar           1 RES1               0.0000
      7 C7         185.2590  14.5379  50.3776 C.ar           1 RES1               0.0000
      8 N8         183.8448  18.1581  49.5401 N.am           1 RES1               0.0000
      9 O9         186.0275  18.4393  49.0568 O.2            1 RES1               0.0000
     10 N10        183.1280  17.1348  51.5070 N.am           1 RES1               0.0000
     11 O11        184.5057  15.9511  52.8316 O.2            1 RES1               0.0000
     12 C12        186.0633  18.8620  52.6505 C.3            1 RES1               0.0000
     13 C13        187.6864  14.4531  49.0709 C.ar           1 RES1               0.0000
     14 C14        185.7041  13.3557  49.8096 C.ar           1 RES1               0.0000
     15 C15        182.8077  17.8425  50.3806 C.2            1 RES1               0.0000
     16 C16        186.9176  13.3120  49.1567 C.ar           1 RES1               0.0000
     17 O17        181.6587  18.1889  50.1220 O.2            1 RES1               0.0000
     18 H18        187.0774  16.9846  52.4605 H              1 RES1               0.0000
     19 H19        187.3921  18.1250  51.1404 H              1 RES1               0.0000
     20 H20        187.8606  16.5248  49.5582 H              1 RES1               0.0000
     21 H21        184.3006  14.5491  50.8854 H              1 RES1               0.0000
     22 H22        183.6022  18.5946  48.6564 H              1 RES1               0.0000
     23 H23        182.3732  16.9440  52.1584 H              1 RES1               0.0000
     24 H24        186.8557  19.3223  53.2370 H              1 RES1               0.0000
     25 H25        185.6148  19.6307  52.0245 H              1 RES1               0.0000
     26 H26        185.3020  18.4970  53.3368 H              1 RES1               0.0000
     27 H27        188.6415  14.4243  48.5569 H              1 RES1               0.0000
     28 H28        185.0955  12.4602  49.8790 H              1 RES1               0.0000
     29 H29        187.2653  12.3850  48.7127 H              1 RES1               0.0000
@<TRIPOS>BOND
    1    1    2 1     
    2    1    3 1     
    3    1    4 1     
    4    1    5 1     
    5    2    6 ar    
    6    2    7 ar    
    7    3    8 1     
    8    3    9 2     
    9    4   10 1     
   10    4   11 2     
   11    5   12 1     
   12    5   18 1     
   13    5   19 1     
   14    6   13 ar    
   15    6   20 1     
   16    7   14 ar    
   17    7   21 1     
   18    8   15 1     
   19    8   22 1     
   20   10   15 1     
   21   10   23 1     
   22   12   24 1     
   23   12   25 1     
   24   12   26 1     
   25   13   16 ar    
   26   13   27 1     
   27   14   16 ar    
   28   14   28 1     
   29   15   17 2     
   30   16   29 1     
@<TRIPOS>SUBSTRUCTURE
      1 RES1           1
@<TRIPOS>SET
DONOR_HYDROGENS      STATIC     ATOMS    <user>   **** ""
2 22 23
ATOM$RED        STATIC     ATOMS    COLORGROUP SYSTEM
2 22 23
@<TRIPOS>COMMENT
> <Gold.Version>
2022.3.0

> <Gold.Id.Protein>
unknown|4d1n_clean|pdb

> <Gold.Protein.RotatedTorsions>
[ 16977 16944 16943 16941 ] final    5.53 input   59.98 | X-H torsion
[ 18494 18452 18451 18449 ] final  -25.68 input   59.98 | X-H torsion
[ 18554 18521 18522 18523 ] final   76.98 input   91.55 | X-H torsion
[ 18707 18674 18675 18676 ] final  -41.14 input  121.65 | X-H torsion
[ 18768 18733 18734 18735 ] final -124.01 input   95.18 | X-H torsion
[ 18950 18904 18905 18906 ] final  132.58 input   99.08 | X-H torsion
[ 19025 18997 18998 18999 ] final -166.62 input  121.68 | X-H torsion
[ 17185 17170 17171 17172 ] final  -65.83 input   47.05 | X-H torsion
[ 17233 17212 17213 17214 ] final  -60.12 input  118.29 | X-H torsion
[ 18820 18805 18806 18807 ] final -138.39 input  116.09 | X-H torsion
[ 19094 19049 19050 19051 ] final  -62.34 input   88.91 | X-H torsion
[ 18486 18441 18442 18443 ] final   18.01 input  100.68 | X-H torsion
[ 17293 17275 17276 17277 ] final  111.17 input   51.25 | X-H torsion
[ 18289 18267 18268 18269 ] final   97.89 input   31.65 | X-H torsion
[ 18324 18309 18310 18311 ] final   73.54 input   53.83 | X-H torsion
[ 18399 18347 18348 18349 ] final   41.79 input   27.99 | X-H torsion
[ 7521 7509 7510 7511 ] final  -91.05 input   80.33 | X-H torsion
[ 7486 7448 7449 7450 ] final   32.31 input   99.31 | X-H torsion
[ 18600 18585 18586 18587 ] final   49.95 input  129.83 | X-H torsion
[ 10110 10088 10087 10084 ] final -115.88 input   59.98 | X-H torsion
[ 18293 18272 18271 18268 ] final -127.84 input   59.99 | X-H torsion
[ 18650 18622 18620 18617 ] final  -15.38 input   59.97 | X-H torsion
[ 18866 18836 18837 18838 ] final   97.91 input   87.55 | X-H torsion
[ 22436 22408 22409 22410 ] final  -30.41 input   59.22 | X-H torsion
[ 10146 10126 10127 10128 ] final  103.34 input   20.82 | X-H torsion
[ 18225 18192 18193 18194 ] final   -0.16 input   40.98 | X-H torsion
[ 11813 11769 11770 11771 ] final   -5.02 input   85.42 | X-H torsion
[ 16969 16933 16934 16935 ] final -100.62 input   88.91 | X-H torsion
[ 27198 18524 18523 18522 ] final -114.34 input    0.00 | X-H torsion
[ 27200 18619 18618 18617 ] final  -57.77 input    0.00 | X-H torsion
[ 27203 18677 18676 18675 ] final  169.62 input    0.00 | X-H torsion
[ 27223 17119 17118 17117 ] final -104.44 input    0.00 | X-H torsion
[ 27227 11596 11595 11594 ] final  118.70 input   -0.00 | X-H torsion
[ 27231 17044 17043 17042 ] final -166.80 input    0.00 | X-H torsion
[ 27233 18736 18735 18734 ] final -154.17 input   -0.00 | X-H torsion
[ 27235 18588 18587 18586 ] final  142.61 input    0.00 | X-H torsion
[ 27238 18907 18906 18905 ] final -102.04 input    0.00 | X-H torsion
[ 27240 19000 18999 18998 ] final   84.82 input    0.00 | X-H torsion
[ 27243 17173 17172 17171 ] final -110.78 input    0.00 | X-H torsion
[ 27245 18350 18349 18348 ] final  165.69 input    0.00 | X-H torsion
[ 27248 11406 11405 11404 ] final   54.30 input   -0.00 | X-H torsion
[ 27250 18195 18194 18193 ] final  -77.07 input    0.00 | X-H torsion
[ 27254 17215 17214 17213 ] final  -45.83 input   -0.00 | X-H torsion
[ 27260 18312 18311 18310 ] final  -33.42 input   -0.00 | X-H torsion
[ 27262 18444 18443 18442 ] final   83.38 input    0.00 | X-H torsion
[ 27265 18270 18269 18268 ] final  124.83 input    0.00 | X-H torsion
[ 27273 16936 16935 16934 ] final   56.24 input   -0.00 | X-H torsion

> <Gold.Protein.ActiveResidues>
 TRP414  CYS420  VAL421  GLY422  LEU460  SER462  ALA463  SER482  GLN483  ILE485 
 ARG486  TYR487  ASP500  ASN503  TRP566  TYR567  LEU569  PRO570  ALA571  VAL572 
 SER573  ASN574  PHE589  SER590  GLY591  TRP592  TYR593  MET594  GLY595  THR596 
 GLU597  ILE598  GLY599  VAL600  ARG601  ASP602  TYR603  ARG608  ILE653  VAL654 
 TRP683  PRO687  HEM750  H4B760 

> <Gold.Protein.RotatedAtoms>
  195.0614   10.8144   53.4024 H   0  0  0  0  0  0  0  0  0  0  0  0  # atno 7486 bound_to 7448
  195.7611    9.0535   55.0766 H   0  0  0  0  0  0  0  0  0  0  0  0  # atno 7521 bound_to 7509
  189.8407    2.8119   50.8679 H   0  0  0  0  0  0  0  0  0  0  0  0  # atno 10110 bound_to 10088
  186.6955    1.6788   47.4558 H   0  0  0  0  0  0  0  0  0  0  0  0  # atno 10146 bound_to 10126
  176.2924   17.5179   46.6322 H   0  0  0  0  0  0  0  0  0  0  0  0  # atno 11813 bound_to 11769
  175.5153   12.4380   54.2367 H   0  0  0  0  0  0  0  0  0  0  0  0  # atno 16969 bound_to 16933
  181.1092   14.3742   49.3851 H   0  0  0  0  0  0  0  0  0  0  0  0  # atno 16977 bound_to 16944
  184.0574   10.4326   47.8501 H   0  0  0  0  0  0  0  0  0  0  0  0  # atno 17185 bound_to 17170
  184.5812   10.3719   45.0182 H   0  0  0  0  0  0  0  0  0  0  0  0  # atno 17233 bound_to 17212
  184.7545   12.3861   42.5497 H   0  0  0  0  0  0  0  0  0  0  0  0  # atno 17293 bound_to 17275
  186.3505    7.9102   42.9585 H   0  0  0  0  0  0  0  0  0  0  0  0  # atno 18225 bound_to 18192
  186.4088    5.1394   45.3635 H   0  0  0  0  0  0  0  0  0  0  0  0  # atno 18289 bound_to 18267
  183.8765    4.4550   46.2478 H   0  0  0  0  0  0  0  0  0  0  0  0  # atno 18293 bound_to 18272
  187.1121    6.7874   49.6059 H   0  0  0  0  0  0  0  0  0  0  0  0  # atno 18324 bound_to 18309
  187.4422    6.1274   53.0555 H   0  0  0  0  0  0  0  0  0  0  0  0  # atno 18399 bound_to 18347
  185.3111    7.5518   55.8413 H   0  0  0  0  0  0  0  0  0  0  0  0  # atno 18486 bound_to 18441
  182.3670   14.5052   52.0161 H   0  0  0  0  0  0  0  0  0  0  0  0  # atno 18494 bound_to 18452
  187.2987   11.2962   56.1405 H   0  0  0  0  0  0  0  0  0  0  0  0  # atno 18554 bound_to 18521
  187.2120   12.5112   60.1969 H   0  0  0  0  0  0  0  0  0  0  0  0  # atno 18600 bound_to 18585
  188.6173   15.4528   59.3428 H   0  0  0  0  0  0  0  0  0  0  0  0  # atno 18650 bound_to 18622
  186.1729   16.8046   58.5951 H   0  0  0  0  0  0  0  0  0  0  0  0  # atno 18707 bound_to 18674
  184.2899   16.5767   56.2571 H   0  0  0  0  0  0  0  0  0  0  0  0  # atno 18768 bound_to 18733
  181.8526   17.0804   59.1075 H   0  0  0  0  0  0  0  0  0  0  0  0  # atno 18820 bound_to 18805
  184.7913   18.9570   59.9759 H   0  0  0  0  0  0  0  0  0  0  0  0  # atno 18866 bound_to 18836
  185.7644   20.3185   57.8573 H   0  0  0  0  0  0  0  0  0  0  0  0  # atno 18950 bound_to 18904
  183.8828   20.4279   54.9201 H   0  0  0  0  0  0  0  0  0  0  0  0  # atno 19025 bound_to 18997
  180.9977   21.8821   56.0135 H   0  0  0  0  0  0  0  0  0  0  0  0  # atno 19094 bound_to 19049
  185.6554    8.1535   60.6225 H   0  0  0  0  0  0  0  0  0  0  0  0  # atno 22436 bound_to 22408
  180.4584   15.5619   50.2867 LP  0  0  0  0  0  0  0  0  0  0  0  0  # atno 27193 bound_to 16944
  179.9706   15.3433   48.7437 LP  0  0  0  0  0  0  0  0  0  0  0  0  # atno 27194 bound_to 16944
  180.9225   13.7557   52.0365 LP  0  0  0  0  0  0  0  0  0  0  0  0  # atno 27195 bound_to 18452
  182.1129   13.2137   51.0588 LP  0  0  0  0  0  0  0  0  0  0  0  0  # atno 27196 bound_to 18452
  186.7105    9.8668   56.9597 LP  0  0  0  0  0  0  0  0  0  0  0  0  # atno 27197 bound_to 18521
  186.5548   14.2375   58.1542 LP  0  0  0  0  0  0  0  0  0  0  0  0  # atno 27198 bound_to 18524
  185.7506   13.0746   57.1537 LP  0  0  0  0  0  0  0  0  0  0  0  0  # atno 27199 bound_to 18524
  185.3548   18.7135   59.1042 LP  0  0  0  0  0  0  0  0  0  0  0  0  # atno 27200 bound_to 18619
  186.6458   18.8428   57.9568 LP  0  0  0  0  0  0  0  0  0  0  0  0  # atno 27201 bound_to 18619
  186.9245   15.3434   58.0053 LP  0  0  0  0  0  0  0  0  0  0  0  0  # atno 27202 bound_to 18674
  183.5142   18.4772   55.6736 LP  0  0  0  0  0  0  0  0  0  0  0  0  # atno 27203 bound_to 18677
  185.2092   18.7285   55.4207 LP  0  0  0  0  0  0  0  0  0  0  0  0  # atno 27204 bound_to 18677
  184.2519   16.1386   57.9517 LP  0  0  0  0  0  0  0  0  0  0  0  0  # atno 27209 bound_to 18733
  184.4726   21.3815   58.3572 LP  0  0  0  0  0  0  0  0  0  0  0  0  # atno 27210 bound_to 18904
  183.1822   21.0325   56.4013 LP  0  0  0  0  0  0  0  0  0  0  0  0  # atno 27211 bound_to 18997
  185.6086    8.9345   48.5292 LP  0  0  0  0  0  0  0  0  0  0  0  0  # atno 27223 bound_to 17119
  184.4062    7.7506   48.9197 LP  0  0  0  0  0  0  0  0  0  0  0  0  # atno 27224 bound_to 17119
  182.4159    9.8986   47.5767 LP  0  0  0  0  0  0  0  0  0  0  0  0  # atno 27225 bound_to 17170
  186.0928   10.2507   45.8921 LP  0  0  0  0  0  0  0  0  0  0  0  0  # atno 27226 bound_to 17212
  179.6105   13.8922   46.5339 LP  0  0  0  0  0  0  0  0  0  0  0  0  # atno 27227 bound_to 11596
  179.1087   12.7367   47.7226 LP  0  0  0  0  0  0  0  0  0  0  0  0  # atno 27228 bound_to 11596
  181.0734   10.0909   48.6379 LP  0  0  0  0  0  0  0  0  0  0  0  0  # atno 27231 bound_to 17044
  179.5745    9.3392   49.0718 LP  0  0  0  0  0  0  0  0  0  0  0  0  # atno 27232 bound_to 17044
  181.9637   19.8339   58.6180 LP  0  0  0  0  0  0  0  0  0  0  0  0  # atno 27233 bound_to 18736
  181.0956   19.1515   57.2835 LP  0  0  0  0  0  0  0  0  0  0  0  0  # atno 27234 bound_to 18736
  184.2324   16.2934   60.4042 LP  0  0  0  0  0  0  0  0  0  0  0  0  # atno 27235 bound_to 18588
  183.5515   14.9978   59.4780 LP  0  0  0  0  0  0  0  0  0  0  0  0  # atno 27236 bound_to 18588
  183.5365   17.5601   59.0915 LP  0  0  0  0  0  0  0  0  0  0  0  0  # atno 27237 bound_to 18805
  182.6290   23.3960   56.1220 LP  0  0  0  0  0  0  0  0  0  0  0  0  # atno 27238 bound_to 18907
  183.5902   23.4839   54.6839 LP  0  0  0  0  0  0  0  0  0  0  0  0  # atno 27239 bound_to 18907
  179.0248   21.8141   54.6662 LP  0  0  0  0  0  0  0  0  0  0  0  0  # atno 27240 bound_to 19000
  180.0179   23.2246   54.8214 LP  0  0  0  0  0  0  0  0  0  0  0  0  # atno 27241 bound_to 19000
  181.1800   20.6291   57.2189 LP  0  0  0  0  0  0  0  0  0  0  0  0  # atno 27242 bound_to 19049
  183.6642   10.3726   43.2160 LP  0  0  0  0  0  0  0  0  0  0  0  0  # atno 27243 bound_to 17173
  182.7291   11.2223   44.4008 LP  0  0  0  0  0  0  0  0  0  0  0  0  # atno 27244 bound_to 17173
  187.4485    9.0375   54.4917 LP  0  0  0  0  0  0  0  0  0  0  0  0  # atno 27245 bound_to 18350
  187.8742    7.4711   53.8875 LP  0  0  0  0  0  0  0  0  0  0  0  0  # atno 27246 bound_to 18350
  184.7860    8.1993   54.3053 LP  0  0  0  0  0  0  0  0  0  0  0  0  # atno 27247 bound_to 18441
  185.3935   15.1425   42.8938 LP  0  0  0  0  0  0  0  0  0  0  0  0  # atno 27248 bound_to 11406
  184.7961   13.5788   42.4491 LP  0  0  0  0  0  0  0  0  0  0  0  0  # atno 27249 bound_to 11406
  187.3687    8.5981   45.4303 LP  0  0  0  0  0  0  0  0  0  0  0  0  # atno 27250 bound_to 18195
  185.7046    8.1590   45.2358 LP  0  0  0  0  0  0  0  0  0  0  0  0  # atno 27251 bound_to 18195
  187.4925    9.9240   42.8951 LP  0  0  0  0  0  0  0  0  0  0  0  0  # atno 27254 bound_to 17215
  186.0932    9.5249   41.9556 LP  0  0  0  0  0  0  0  0  0  0  0  0  # atno 27255 bound_to 17215
  186.4489   12.0570   42.3117 LP  0  0  0  0  0  0  0  0  0  0  0  0  # atno 27256 bound_to 17275
  187.7753    6.1730   45.7027 LP  0  0  0  0  0  0  0  0  0  0  0  0  # atno 27257 bound_to 18267
  186.6982    5.3030   48.7738 LP  0  0  0  0  0  0  0  0  0  0  0  0  # atno 27258 bound_to 18309
  186.1358    5.6630   51.9829 LP  0  0  0  0  0  0  0  0  0  0  0  0  # atno 27259 bound_to 18347
  184.6603    4.7757   50.6502 LP  0  0  0  0  0  0  0  0  0  0  0  0  # atno 27260 bound_to 18312
  184.4199    4.5906   52.3554 LP  0  0  0  0  0  0  0  0  0  0  0  0  # atno 27261 bound_to 18312
  186.7115    7.9935   57.6983 LP  0  0  0  0  0  0  0  0  0  0  0  0  # atno 27262 bound_to 18444
  185.6928    9.0330   58.6373 LP  0  0  0  0  0  0  0  0  0  0  0  0  # atno 27263 bound_to 18444
  194.7984    9.2097   53.6312 LP  0  0  0  0  0  0  0  0  0  0  0  0  # atno 27264 bound_to 7509
  188.2903    3.7874   48.3986 LP  0  0  0  0  0  0  0  0  0  0  0  0  # atno 27265 bound_to 18270
  186.7186    3.3879   47.7903 LP  0  0  0  0  0  0  0  0  0  0  0  0  # atno 27266 bound_to 18270
  196.4582   11.8704   53.4050 LP  0  0  0  0  0  0  0  0  0  0  0  0  # atno 27267 bound_to 7448
  186.0126   11.4870   59.4452 LP  0  0  0  0  0  0  0  0  0  0  0  0  # atno 27268 bound_to 18585
  190.0049    1.3183   51.4929 LP  0  0  0  0  0  0  0  0  0  0  0  0  # atno 27269 bound_to 10088
  188.5232    1.9912   51.3568 LP  0  0  0  0  0  0  0  0  0  0  0  0  # atno 27270 bound_to 10088
  184.1557    4.0175   47.7900 LP  0  0  0  0  0  0  0  0  0  0  0  0  # atno 27271 bound_to 18272
  185.3719    4.0007   46.7004 LP  0  0  0  0  0  0  0  0  0  0  0  0  # atno 27272 bound_to 18272
  178.3117   11.3937   54.6847 LP  0  0  0  0  0  0  0  0  0  0  0  0  # atno 27273 bound_to 16936
  179.3454   10.5595   53.5731 LP  0  0  0  0  0  0  0  0  0  0  0  0  # atno 27274 bound_to 16936

> <Gold.Score>
     Fitness  S(hb_ext) S(vdw_ext)  S(hb_int)    S(int)      intcor
     32.93       5.42      21.30       0.00      -1.78      -0.77

> <Gold.Goldscore.Fitness>
32.9287

> <Gold.Goldscore.Internal.Vdw>
-1.9649

> <Gold.Goldscore.Internal.Torsion>
-0.5864

> <Gold.Goldscore.External.Vdw>
21.3044

> <Gold.Goldscore.Internal.HBond>
0.0000

> <Gold.Goldscore.External.HBond>
5.4177

> <Gold.Goldscore.Internal.Correction>
-0.7686

> <Gold.Goldscore.Hbonds>
donor molecule, donor type, donor heavy atom, donor atom, acceptor molecule, acceptor atom, score
      P1  H 11682 11730       L1    17  0.53
      P1  H 18452 18494       L1    11  0.03
      P1  H 19334 19372       L1    17  0.24
      L1  H    10    23       P1 19004  0.13

> <Gold.Goldscore.Internal.Vdw.Weighted>
-1.9649

> <Gold.Goldscore.Internal.Torsion.Weighted>
-0.5864

> <Gold.Goldscore.External.Vdw.Weighted>
29.2936

> <Gold.Goldscore.Internal.HBond.Weighted>
0.0000

> <Gold.Goldscore.External.HBond.Weighted>
5.4177

> <Gold.Goldscore.Internal.Correction.Weighted>
-0.7686

> <Gold.Rescore>
     Score     S(PLP)   S(hbond)     S(cho)   S(metal)  DE(clash)   DE(tors)     intcor
     22.93     -17.15       2.47       0.00       0.00       1.13       0.25       ----

> <Gold.PLP.Fitness>
22.9346

> <Gold.PLP.PLP>
-17.1513

> <Gold.PLP.part.hbond>
-3.7197

> <Gold.PLP.part.metal>
0.0000

> <Gold.PLP.part.buried>
12.2212

> <Gold.PLP.part.nonpolar>
-29.0081

> <Gold.PLP.part.repulsive>
2.8285

> <Gold.PLP.ligand.clash>
1.1316

> <Gold.PLP.ligand.torsion>
0.2451

> <Gold.PLP.Chemscore.Hbond>
2.4684

> <Gold.PLP.Chemscore.CHOScore>
0.0000

> <Gold.PLP.Chemscore.Metal>
0.0000

> <Gold.Chemscore.Hbonds>
donor molecule, donor type, donor heavy atom, donor atom, acceptor molecule, acceptor atom, score
      L1  H    10    23       P1 19004  0.67
      P1  H 11682 11730       L1    17  1.00
      P1  H 19334 19372       L1    17  0.82

> <Gold.PLP.Chemscore.Internal.Correction>
   9.000000E+99

