#       Name:                CT1002167954
#       Creating user name   hitesit
#       Creation time:       Sun Apr 16 22:56:29 2023


#       File generated by GOLD software.
#

@<TRIPOS>MOLECULE
CT1002167954|ligand_prepared|mol2|1|dock5
    29    30     1
SMALL
NO_CHARGES


@<TRIPOS>ATOM
      1 C1         188.5034  11.5133  50.3577 C.3            1 RES1               0.0000
      2 C2         187.5604  12.7024  50.0830 C.ar           1 RES1               0.0000
      3 C3         189.3688  11.9187  51.5472 C.2            1 RES1               0.0000
      4 C4         187.6060  10.3095  50.6228 C.2            1 RES1               0.0000
      5 C5         189.4318  11.1649  49.1710 C.3            1 RES1               0.0000
      6 C6         186.4586  12.9365  50.9003 C.ar           1 RES1               0.0000
      7 C7         187.7803  13.5738  49.0195 C.ar           1 RES1               0.0000
      8 N8         189.1024  11.3348  52.7506 N.am           1 RES1               0.0000
      9 O9         190.2457  12.7671  51.4398 O.2            1 RES1               0.0000
     10 N10        187.6233   9.7598  51.8780 N.am           1 RES1               0.0000
     11 O11        186.8717   9.8424  49.7609 O.2            1 RES1               0.0000
     12 C12        190.2622   9.9101  49.3900 C.3            1 RES1               0.0000
     13 C13        185.6091  14.0048  50.6649 C.ar           1 RES1               0.0000
     14 C14        186.9294  14.6414  48.7858 C.ar           1 RES1               0.0000
     15 C15        188.3079  10.2369  52.9624 C.2            1 RES1               0.0000
     16 C16        185.8441  14.8582  49.6079 C.ar           1 RES1               0.0000
     17 O17        188.2302   9.7194  54.0730 O.2            1 RES1               0.0000
     18 H18        188.8191  11.0303  48.2711 H              1 RES1               0.0000
     19 H19        190.1087  12.0095  48.9925 H              1 RES1               0.0000
     20 H20        186.2563  12.2742  51.7354 H              1 RES1               0.0000
     21 H21        188.6273  13.4220  48.3590 H              1 RES1               0.0000
     22 H22        189.5338  11.7532  53.5686 H              1 RES1               0.0000
     23 H23        187.0752   8.9168  52.0166 H              1 RES1               0.0000
     24 H24        190.8954   9.7113  48.5279 H              1 RES1               0.0000
     25 H25        190.9025  10.0187  50.2629 H              1 RES1               0.0000
     26 H26        189.6206   9.0453  49.5458 H              1 RES1               0.0000
     27 H27        184.7556  14.1703  51.3140 H              1 RES1               0.0000
     28 H28        187.1179  15.3101  47.9523 H              1 RES1               0.0000
     29 H29        185.1788  15.6952  49.4239 H              1 RES1               0.0000
@<TRIPOS>BOND
    1    1    2 1     
    2    1    3 1     
    3    1    4 1     
    4    1    5 1     
    5    2    6 ar    
    6    2    7 ar    
    7    3    8 1     
    8    3    9 2     
    9    4   10 1     
   10    4   11 2     
   11    5   12 1     
   12    5   18 1     
   13    5   19 1     
   14    6   13 ar    
   15    6   20 1     
   16    7   14 ar    
   17    7   21 1     
   18    8   15 1     
   19    8   22 1     
   20   10   15 1     
   21   10   23 1     
   22   12   24 1     
   23   12   25 1     
   24   12   26 1     
   25   13   16 ar    
   26   13   27 1     
   27   14   16 ar    
   28   14   28 1     
   29   15   17 2     
   30   16   29 1     
@<TRIPOS>SUBSTRUCTURE
      1 RES1           1
@<TRIPOS>SET
DONOR_HYDROGENS      STATIC     ATOMS    <user>   **** ""
2 22 23
ATOM$RED        STATIC     ATOMS    COLORGROUP SYSTEM
2 22 23
@<TRIPOS>COMMENT
> <Gold.Version>
2022.3.0

> <Gold.Id.Protein>
unknown|4d1n_clean|pdb

> <Gold.Protein.RotatedTorsions>
[ 16977 16944 16943 16941 ] final -152.50 input   59.98 | X-H torsion
[ 18494 18452 18451 18449 ] final    6.25 input   59.98 | X-H torsion
[ 18554 18521 18522 18523 ] final  -78.35 input   91.55 | X-H torsion
[ 18707 18674 18675 18676 ] final  -28.59 input  121.65 | X-H torsion
[ 18768 18733 18734 18735 ] final  -18.74 input   95.18 | X-H torsion
[ 18950 18904 18905 18906 ] final  -19.44 input   99.08 | X-H torsion
[ 19025 18997 18998 18999 ] final   71.13 input  121.68 | X-H torsion
[ 17185 17170 17171 17172 ] final  175.48 input   47.05 | X-H torsion
[ 17233 17212 17213 17214 ] final   42.34 input  118.29 | X-H torsion
[ 18820 18805 18806 18807 ] final -117.47 input  116.09 | X-H torsion
[ 19094 19049 19050 19051 ] final  114.45 input   88.91 | X-H torsion
[ 18486 18441 18442 18443 ] final -165.39 input  100.68 | X-H torsion
[ 17293 17275 17276 17277 ] final  172.15 input   51.25 | X-H torsion
[ 18289 18267 18268 18269 ] final   57.27 input   31.65 | X-H torsion
[ 18324 18309 18310 18311 ] final   13.52 input   53.83 | X-H torsion
[ 18399 18347 18348 18349 ] final  113.16 input   27.99 | X-H torsion
[ 7521 7509 7510 7511 ] final -158.58 input   80.33 | X-H torsion
[ 7486 7448 7449 7450 ] final   33.03 input   99.31 | X-H torsion
[ 18600 18585 18586 18587 ] final   60.93 input  129.83 | X-H torsion
[ 10110 10088 10087 10084 ] final  -38.00 input   59.98 | X-H torsion
[ 18293 18272 18271 18268 ] final  -66.39 input   59.99 | X-H torsion
[ 18650 18622 18620 18617 ] final -110.13 input   59.97 | X-H torsion
[ 18866 18836 18837 18838 ] final   69.49 input   87.55 | X-H torsion
[ 22436 22408 22409 22410 ] final   33.77 input   59.22 | X-H torsion
[ 10146 10126 10127 10128 ] final -117.68 input   20.82 | X-H torsion
[ 18225 18192 18193 18194 ] final   52.00 input   40.98 | X-H torsion
[ 11813 11769 11770 11771 ] final  133.35 input   85.42 | X-H torsion
[ 16969 16933 16934 16935 ] final  -12.49 input   88.91 | X-H torsion
[ 27198 18524 18523 18522 ] final  -98.52 input    0.00 | X-H torsion
[ 27200 18619 18618 18617 ] final  145.06 input    0.00 | X-H torsion
[ 27203 18677 18676 18675 ] final  143.38 input    0.00 | X-H torsion
[ 27223 17119 17118 17117 ] final   68.61 input    0.00 | X-H torsion
[ 27227 11596 11595 11594 ] final  102.57 input   -0.00 | X-H torsion
[ 27231 17044 17043 17042 ] final  -14.27 input    0.00 | X-H torsion
[ 27233 18736 18735 18734 ] final  122.31 input   -0.00 | X-H torsion
[ 27235 18588 18587 18586 ] final   18.01 input    0.00 | X-H torsion
[ 27238 18907 18906 18905 ] final  -13.89 input    0.00 | X-H torsion
[ 27240 19000 18999 18998 ] final   55.79 input    0.00 | X-H torsion
[ 27243 17173 17172 17171 ] final   87.45 input    0.00 | X-H torsion
[ 27245 18350 18349 18348 ] final  -43.96 input    0.00 | X-H torsion
[ 27248 11406 11405 11404 ] final -139.46 input   -0.00 | X-H torsion
[ 27250 18195 18194 18193 ] final   19.23 input    0.00 | X-H torsion
[ 27254 17215 17214 17213 ] final   42.36 input   -0.00 | X-H torsion
[ 27260 18312 18311 18310 ] final  153.73 input   -0.00 | X-H torsion
[ 27262 18444 18443 18442 ] final  -59.21 input    0.00 | X-H torsion
[ 27265 18270 18269 18268 ] final   23.97 input    0.00 | X-H torsion
[ 27273 16936 16935 16934 ] final   49.78 input   -0.00 | X-H torsion

> <Gold.Protein.ActiveResidues>
 TRP414  CYS420  VAL421  GLY422  LEU460  SER462  ALA463  SER482  GLN483  ILE485 
 ARG486  TYR487  ASP500  ASN503  TRP566  TYR567  LEU569  PRO570  ALA571  VAL572 
 SER573  ASN574  PHE589  SER590  GLY591  TRP592  TYR593  MET594  GLY595  THR596 
 GLU597  ILE598  GLY599  VAL600  ARG601  ASP602  TYR603  ARG608  ILE653  VAL654 
 TRP683  PRO687  HEM750  H4B760 

> <Gold.Protein.RotatedAtoms>
  195.0554   10.8226   53.4070 H   0  0  0  0  0  0  0  0  0  0  0  0  # atno 7486 bound_to 7448
  194.8596    9.4226   55.0638 H   0  0  0  0  0  0  0  0  0  0  0  0  # atno 7521 bound_to 7509
  188.7069    2.5805   51.0830 H   0  0  0  0  0  0  0  0  0  0  0  0  # atno 10110 bound_to 10088
  188.1837    0.9676   47.4797 H   0  0  0  0  0  0  0  0  0  0  0  0  # atno 10146 bound_to 10126
  176.0100   16.9293   48.1600 H   0  0  0  0  0  0  0  0  0  0  0  0  # atno 11813 bound_to 11769
  176.7466   12.4537   54.3274 H   0  0  0  0  0  0  0  0  0  0  0  0  # atno 16969 bound_to 16933
  180.0643   15.8011   49.8840 H   0  0  0  0  0  0  0  0  0  0  0  0  # atno 16977 bound_to 16944
  182.9697    9.3877   48.0529 H   0  0  0  0  0  0  0  0  0  0  0  0  # atno 17185 bound_to 17170
  185.7910    9.6947   44.9967 H   0  0  0  0  0  0  0  0  0  0  0  0  # atno 17233 bound_to 17212
  185.0963   11.6002   42.7768 H   0  0  0  0  0  0  0  0  0  0  0  0  # atno 17293 bound_to 17275
  187.0505    8.1927   42.8114 H   0  0  0  0  0  0  0  0  0  0  0  0  # atno 18225 bound_to 18192
  186.8613    4.8162   45.6204 H   0  0  0  0  0  0  0  0  0  0  0  0  # atno 18289 bound_to 18267
  184.7972    4.2925   46.0457 H   0  0  0  0  0  0  0  0  0  0  0  0  # atno 18293 bound_to 18272
  186.2712    6.4918   49.6132 H   0  0  0  0  0  0  0  0  0  0  0  0  # atno 18324 bound_to 18309
  187.0022    5.1819   53.0056 H   0  0  0  0  0  0  0  0  0  0  0  0  # atno 18399 bound_to 18347
  184.7324    8.2181   54.3087 H   0  0  0  0  0  0  0  0  0  0  0  0  # atno 18486 bound_to 18441
  182.6427   14.2380   51.6725 H   0  0  0  0  0  0  0  0  0  0  0  0  # atno 18494 bound_to 18452
  186.4069   10.0830   56.9997 H   0  0  0  0  0  0  0  0  0  0  0  0  # atno 18554 bound_to 18521
  187.1914   12.4097   60.3306 H   0  0  0  0  0  0  0  0  0  0  0  0  # atno 18600 bound_to 18585
  189.6143   15.6040   60.2812 H   0  0  0  0  0  0  0  0  0  0  0  0  # atno 18650 bound_to 18622
  186.0146   16.6954   58.6017 H   0  0  0  0  0  0  0  0  0  0  0  0  # atno 18707 bound_to 18674
  184.4940   17.0956   57.5576 H   0  0  0  0  0  0  0  0  0  0  0  0  # atno 18768 bound_to 18733
  181.8364   17.3455   58.9228 H   0  0  0  0  0  0  0  0  0  0  0  0  # atno 18820 bound_to 18805
  184.6036   19.0412   59.5929 H   0  0  0  0  0  0  0  0  0  0  0  0  # atno 18866 bound_to 18836
  184.2590   21.0533   58.1986 H   0  0  0  0  0  0  0  0  0  0  0  0  # atno 18950 bound_to 18904
  183.2055   20.1967   56.2896 H   0  0  0  0  0  0  0  0  0  0  0  0  # atno 19025 bound_to 18997
  181.2130   20.6439   57.2594 H   0  0  0  0  0  0  0  0  0  0  0  0  # atno 19094 bound_to 19049
  186.1967    8.3730   59.9033 H   0  0  0  0  0  0  0  0  0  0  0  0  # atno 22436 bound_to 22408
  180.3198   14.8664   48.5770 LP  0  0  0  0  0  0  0  0  0  0  0  0  # atno 27193 bound_to 16944
  181.1616   14.6017   49.9510 LP  0  0  0  0  0  0  0  0  0  0  0  0  # atno 27194 bound_to 16944
  181.1341   14.1627   52.2786 LP  0  0  0  0  0  0  0  0  0  0  0  0  # atno 27195 bound_to 18452
  181.6237   13.0758   51.1626 LP  0  0  0  0  0  0  0  0  0  0  0  0  # atno 27196 bound_to 18452
  187.5768   11.0454   56.1250 LP  0  0  0  0  0  0  0  0  0  0  0  0  # atno 27197 bound_to 18521
  186.7368   14.1883   58.0082 LP  0  0  0  0  0  0  0  0  0  0  0  0  # atno 27198 bound_to 18524
  185.5686   13.1238   57.2996 LP  0  0  0  0  0  0  0  0  0  0  0  0  # atno 27199 bound_to 18524
  186.3859   18.7451   57.7557 LP  0  0  0  0  0  0  0  0  0  0  0  0  # atno 27200 bound_to 18619
  185.6147   18.8112   59.3052 LP  0  0  0  0  0  0  0  0  0  0  0  0  # atno 27201 bound_to 18619
  187.0801   15.4508   57.9988 LP  0  0  0  0  0  0  0  0  0  0  0  0  # atno 27202 bound_to 18674
  183.5838   18.2849   55.3378 LP  0  0  0  0  0  0  0  0  0  0  0  0  # atno 27203 bound_to 18677
  185.1396   18.9208   55.7565 LP  0  0  0  0  0  0  0  0  0  0  0  0  # atno 27204 bound_to 18677
  184.0546   15.6370   56.6946 LP  0  0  0  0  0  0  0  0  0  0  0  0  # atno 27209 bound_to 18733
  185.9508   20.6599   58.0220 LP  0  0  0  0  0  0  0  0  0  0  0  0  # atno 27210 bound_to 18904
  183.8456   21.2590   55.0598 LP  0  0  0  0  0  0  0  0  0  0  0  0  # atno 27211 bound_to 18997
  184.4174    7.7814   49.0195 LP  0  0  0  0  0  0  0  0  0  0  0  0  # atno 27223 bound_to 17119
  185.5974    8.9037   48.4295 LP  0  0  0  0  0  0  0  0  0  0  0  0  # atno 27224 bound_to 17119
  183.4772   10.9182   47.3789 LP  0  0  0  0  0  0  0  0  0  0  0  0  # atno 27225 bound_to 17170
  184.9215   10.9064   45.9128 LP  0  0  0  0  0  0  0  0  0  0  0  0  # atno 27226 bound_to 17212
  179.6970   13.6925   46.4260 LP  0  0  0  0  0  0  0  0  0  0  0  0  # atno 27227 bound_to 11596
  179.0221   12.9364   47.8306 LP  0  0  0  0  0  0  0  0  0  0  0  0  # atno 27228 bound_to 11596
  179.7262    9.0930   48.7795 LP  0  0  0  0  0  0  0  0  0  0  0  0  # atno 27231 bound_to 17044
  180.9217   10.3372   48.9303 LP  0  0  0  0  0  0  0  0  0  0  0  0  # atno 27232 bound_to 17044
  180.9178   19.3525   58.5474 LP  0  0  0  0  0  0  0  0  0  0  0  0  # atno 27233 bound_to 18736
  182.1416   19.6329   57.3541 LP  0  0  0  0  0  0  0  0  0  0  0  0  # atno 27234 bound_to 18736
  183.3912   15.0186   60.2667 LP  0  0  0  0  0  0  0  0  0  0  0  0  # atno 27235 bound_to 18588
  184.3928   16.2727   59.6156 LP  0  0  0  0  0  0  0  0  0  0  0  0  # atno 27236 bound_to 18588
  183.5522   17.3042   59.2697 LP  0  0  0  0  0  0  0  0  0  0  0  0  # atno 27237 bound_to 18805
  183.7412   23.7910   55.8803 LP  0  0  0  0  0  0  0  0  0  0  0  0  # atno 27238 bound_to 18907
  182.4781   23.0889   54.9256 LP  0  0  0  0  0  0  0  0  0  0  0  0  # atno 27239 bound_to 18907
  179.2732   21.8119   54.3103 LP  0  0  0  0  0  0  0  0  0  0  0  0  # atno 27240 bound_to 19000
  179.7695   23.2268   55.1773 LP  0  0  0  0  0  0  0  0  0  0  0  0  # atno 27241 bound_to 19000
  180.9701   21.8362   56.0042 LP  0  0  0  0  0  0  0  0  0  0  0  0  # atno 27242 bound_to 19049
  182.9066   11.4209   44.3349 LP  0  0  0  0  0  0  0  0  0  0  0  0  # atno 27243 bound_to 17173
  183.4867   10.1740   43.2819 LP  0  0  0  0  0  0  0  0  0  0  0  0  # atno 27244 bound_to 17173
  187.9594    7.4520   54.3221 LP  0  0  0  0  0  0  0  0  0  0  0  0  # atno 27245 bound_to 18350
  187.3634    9.0566   54.0571 LP  0  0  0  0  0  0  0  0  0  0  0  0  # atno 27246 bound_to 18350
  185.3505    7.5494   55.8003 LP  0  0  0  0  0  0  0  0  0  0  0  0  # atno 27247 bound_to 18441
  184.7509   13.5661   42.6512 LP  0  0  0  0  0  0  0  0  0  0  0  0  # atno 27248 bound_to 11406
  185.4387   15.1552   42.6916 LP  0  0  0  0  0  0  0  0  0  0  0  0  # atno 27249 bound_to 11406
  186.5040    8.5062   44.4771 LP  0  0  0  0  0  0  0  0  0  0  0  0  # atno 27250 bound_to 18195
  186.5692    8.2509   46.1890 LP  0  0  0  0  0  0  0  0  0  0  0  0  # atno 27251 bound_to 18195
  186.4553    9.3589   43.1341 LP  0  0  0  0  0  0  0  0  0  0  0  0  # atno 27254 bound_to 17215
  187.1305   10.0900   41.7166 LP  0  0  0  0  0  0  0  0  0  0  0  0  # atno 27255 bound_to 17215
  186.1092   12.8382   42.0859 LP  0  0  0  0  0  0  0  0  0  0  0  0  # atno 27256 bound_to 17275
  187.3320    6.4896   45.4511 LP  0  0  0  0  0  0  0  0  0  0  0  0  # atno 27257 bound_to 18267
  187.5097    5.5882   48.7667 LP  0  0  0  0  0  0  0  0  0  0  0  0  # atno 27258 bound_to 18309
  186.5574    6.5692   52.0307 LP  0  0  0  0  0  0  0  0  0  0  0  0  # atno 27259 bound_to 18347
  184.3808    4.6912   52.3540 LP  0  0  0  0  0  0  0  0  0  0  0  0  # atno 27260 bound_to 18312
  184.6995    4.6752   50.6516 LP  0  0  0  0  0  0  0  0  0  0  0  0  # atno 27261 bound_to 18312
  185.3735    8.7259   58.3023 LP  0  0  0  0  0  0  0  0  0  0  0  0  # atno 27262 bound_to 18444
  187.0308    8.3006   58.0333 LP  0  0  0  0  0  0  0  0  0  0  0  0  # atno 27263 bound_to 18444
  195.6904    8.8445   53.6439 LP  0  0  0  0  0  0  0  0  0  0  0  0  # atno 27264 bound_to 7509
  187.6005    3.7799   47.2555 LP  0  0  0  0  0  0  0  0  0  0  0  0  # atno 27265 bound_to 18270
  187.4085    3.3954   48.9334 LP  0  0  0  0  0  0  0  0  0  0  0  0  # atno 27266 bound_to 18270
  196.4641   11.8626   53.4006 LP  0  0  0  0  0  0  0  0  0  0  0  0  # atno 27267 bound_to 7448
  186.0329   11.5862   59.3146 LP  0  0  0  0  0  0  0  0  0  0  0  0  # atno 27268 bound_to 18585
  190.3176    2.3574   51.0164 LP  0  0  0  0  0  0  0  0  0  0  0  0  # atno 27269 bound_to 10088
  189.3521    1.1851   51.6168 LP  0  0  0  0  0  0  0  0  0  0  0  0  # atno 27270 bound_to 10088
  183.5571    4.3210   47.0988 LP  0  0  0  0  0  0  0  0  0  0  0  0  # atno 27271 bound_to 18272
  185.0432    3.8608   47.5951 LP  0  0  0  0  0  0  0  0  0  0  0  0  # atno 27272 bound_to 18272
  178.3060   11.4645   54.6177 LP  0  0  0  0  0  0  0  0  0  0  0  0  # atno 27273 bound_to 16936
  179.3511   10.4887   53.6400 LP  0  0  0  0  0  0  0  0  0  0  0  0  # atno 27274 bound_to 16936

> <Gold.Score>
     Fitness  S(hb_ext) S(vdw_ext)  S(hb_int)    S(int)      intcor
     37.53       0.32      27.18       0.00      -0.16      -0.76

> <Gold.Goldscore.Fitness>
37.5340

> <Gold.Goldscore.Internal.Vdw>
-0.4989

> <Gold.Goldscore.Internal.Torsion>
-0.4183

> <Gold.Goldscore.External.Vdw>
27.1827

> <Gold.Goldscore.Internal.HBond>
0.0000

> <Gold.Goldscore.External.HBond>
0.3166

> <Gold.Goldscore.Internal.Correction>
-0.7585

> <Gold.Goldscore.Hbonds>
donor molecule, donor type, donor heavy atom, donor atom, acceptor molecule, acceptor atom, score
      L1  H    10    23       P1 18347  0.05

> <Gold.Goldscore.Internal.Vdw.Weighted>
-0.4989

> <Gold.Goldscore.Internal.Torsion.Weighted>
-0.4183

> <Gold.Goldscore.External.Vdw.Weighted>
37.3762

> <Gold.Goldscore.Internal.HBond.Weighted>
0.0000

> <Gold.Goldscore.External.HBond.Weighted>
0.3166

> <Gold.Goldscore.Internal.Correction.Weighted>
-0.7585

> <Gold.Rescore>
     Score     S(PLP)   S(hbond)     S(cho)   S(metal)  DE(clash)   DE(tors)     intcor
    -48.54      48.54       0.27       0.00       0.00       0.00       0.40       ----

> <Gold.PLP.Fitness>
-48.5403

> <Gold.PLP.PLP>
48.5400

> <Gold.PLP.part.hbond>
-3.4784

> <Gold.PLP.part.metal>
0.0000

> <Gold.PLP.part.buried>
78.7084

> <Gold.PLP.part.nonpolar>
-27.2484

> <Gold.PLP.part.repulsive>
11.0772

> <Gold.PLP.ligand.clash>
0.0000

> <Gold.PLP.ligand.torsion>
0.4003

> <Gold.PLP.Chemscore.Hbond>
0.2668

> <Gold.PLP.Chemscore.CHOScore>
0.0000

> <Gold.PLP.Chemscore.Metal>
0.0000

> <Gold.Chemscore.Hbonds>
donor molecule, donor type, donor heavy atom, donor atom, acceptor molecule, acceptor atom, score
      L1  H    10    23       P1 18350  0.06

> <Gold.PLP.Chemscore.Internal.Correction>
   9.000000E+99

