#       Name:                CT1002167954
#       Creating user name   hitesit
#       Creation time:       Sun Apr 16 22:56:26 2023


#       File generated by GOLD software.
#

@<TRIPOS>MOLECULE
CT1002167954|ligand_prepared|mol2|1|dock2
    29    30     1
SMALL
NO_CHARGES


@<TRIPOS>ATOM
      1 C1         188.5021  11.1994  49.9155 C.3            1 RES1               0.0000
      2 C2         187.4691  12.3402  50.0164 C.ar           1 RES1               0.0000
      3 C3         189.1820  11.1151  51.2789 C.2            1 RES1               0.0000
      4 C4         187.7197   9.9482  49.5321 C.2            1 RES1               0.0000
      5 C5         189.5875  11.4327  48.8389 C.3            1 RES1               0.0000
      6 C6         186.4763  12.3130  50.9912 C.ar           1 RES1               0.0000
      7 C7         187.4979  13.4259  49.1451 C.ar           1 RES1               0.0000
      8 N8         188.8517  10.0665  52.0859 N.am           1 RES1               0.0000
      9 O9         189.9662  11.9770  51.6562 O.2            1 RES1               0.0000
     10 N10        187.6602   8.9244  50.4410 N.am           1 RES1               0.0000
     11 O11        187.1403   9.8463  48.4578 O.2            1 RES1               0.0000
     12 C12        190.5997  10.3028  48.7338 C.3            1 RES1               0.0000
     13 C13        185.5476  13.3355  51.0932 C.ar           1 RES1               0.0000
     14 C14        186.5680  14.4472  49.2487 C.ar           1 RES1               0.0000
     15 C15        188.1650   8.9392  51.7127 C.2            1 RES1               0.0000
     16 C16        185.5930  14.4033  50.2225 C.ar           1 RES1               0.0000
     17 O17        188.0240   8.0001  52.4908 O.2            1 RES1               0.0000
     18 H18        189.0979  11.5598  47.8656 H              1 RES1               0.0000
     19 H19        190.1201  12.3634  49.0704 H              1 RES1               0.0000
     20 H20        186.4232  11.4796  51.6837 H              1 RES1               0.0000
     21 H21        188.2553  13.4810  48.3706 H              1 RES1               0.0000
     22 H22        189.1421  10.1261  53.0567 H              1 RES1               0.0000
     23 H23        187.1968   8.0723  50.1418 H              1 RES1               0.0000
     24 H24        191.3383  10.5170  47.9643 H              1 RES1               0.0000
     25 H25        191.1236  10.1652  49.6774 H              1 RES1               0.0000
     26 H26        190.1074   9.3664  48.4798 H              1 RES1               0.0000
     27 H27        184.7814  13.2956  51.8605 H              1 RES1               0.0000
     28 H28        186.6072  15.2854  48.5609 H              1 RES1               0.0000
     29 H29        184.8656  15.2044  50.3029 H              1 RES1               0.0000
@<TRIPOS>BOND
    1    1    2 1     
    2    1    3 1     
    3    1    4 1     
    4    1    5 1     
    5    2    6 ar    
    6    2    7 ar    
    7    3    8 1     
    8    3    9 2     
    9    4   10 1     
   10    4   11 2     
   11    5   12 1     
   12    5   18 1     
   13    5   19 1     
   14    6   13 ar    
   15    6   20 1     
   16    7   14 ar    
   17    7   21 1     
   18    8   15 1     
   19    8   22 1     
   20   10   15 1     
   21   10   23 1     
   22   12   24 1     
   23   12   25 1     
   24   12   26 1     
   25   13   16 ar    
   26   13   27 1     
   27   14   16 ar    
   28   14   28 1     
   29   15   17 2     
   30   16   29 1     
@<TRIPOS>SUBSTRUCTURE
      1 RES1           1
@<TRIPOS>SET
DONOR_HYDROGENS      STATIC     ATOMS    <user>   **** ""
2 22 23
ATOM$RED        STATIC     ATOMS    COLORGROUP SYSTEM
2 22 23
@<TRIPOS>COMMENT
> <Gold.Version>
2022.3.0

> <Gold.Id.Protein>
unknown|4d1n_clean|pdb

> <Gold.Protein.RotatedTorsions>
[ 16977 16944 16943 16941 ] final -157.88 input   59.98 | X-H torsion
[ 18494 18452 18451 18449 ] final  -72.61 input   59.98 | X-H torsion
[ 18554 18521 18522 18523 ] final  100.46 input   91.55 | X-H torsion
[ 18707 18674 18675 18676 ] final  177.82 input  121.65 | X-H torsion
[ 18768 18733 18734 18735 ] final -146.00 input   95.18 | X-H torsion
[ 18950 18904 18905 18906 ] final   15.35 input   99.08 | X-H torsion
[ 19025 18997 18998 18999 ] final  -47.77 input  121.68 | X-H torsion
[ 17185 17170 17171 17172 ] final  -93.68 input   47.05 | X-H torsion
[ 17233 17212 17213 17214 ] final  138.96 input  118.29 | X-H torsion
[ 18820 18805 18806 18807 ] final  -22.68 input  116.09 | X-H torsion
[ 19094 19049 19050 19051 ] final  -19.49 input   88.91 | X-H torsion
[ 18486 18441 18442 18443 ] final  112.21 input  100.68 | X-H torsion
[ 17293 17275 17276 17277 ] final  118.16 input   51.25 | X-H torsion
[ 18289 18267 18268 18269 ] final -116.83 input   31.65 | X-H torsion
[ 18324 18309 18310 18311 ] final -100.79 input   53.83 | X-H torsion
[ 18399 18347 18348 18349 ] final  135.31 input   27.99 | X-H torsion
[ 7521 7509 7510 7511 ] final  -90.01 input   80.33 | X-H torsion
[ 7486 7448 7449 7450 ] final   73.62 input   99.31 | X-H torsion
[ 18600 18585 18586 18587 ] final   24.57 input  129.83 | X-H torsion
[ 10110 10088 10087 10084 ] final   98.13 input   59.98 | X-H torsion
[ 18293 18272 18271 18268 ] final   87.80 input   59.99 | X-H torsion
[ 18650 18622 18620 18617 ] final  -36.20 input   59.97 | X-H torsion
[ 18866 18836 18837 18838 ] final -126.15 input   87.55 | X-H torsion
[ 22436 22408 22409 22410 ] final  119.77 input   59.22 | X-H torsion
[ 10146 10126 10127 10128 ] final   82.23 input   20.82 | X-H torsion
[ 18225 18192 18193 18194 ] final -146.60 input   40.98 | X-H torsion
[ 11813 11769 11770 11771 ] final -136.28 input   85.42 | X-H torsion
[ 16969 16933 16934 16935 ] final  135.99 input   88.91 | X-H torsion
[ 27198 18524 18523 18522 ] final   33.83 input    0.00 | X-H torsion
[ 27200 18619 18618 18617 ] final  -15.23 input    0.00 | X-H torsion
[ 27203 18677 18676 18675 ] final  -52.09 input    0.00 | X-H torsion
[ 27223 17119 17118 17117 ] final  122.11 input    0.00 | X-H torsion
[ 27227 11596 11595 11594 ] final   26.96 input   -0.00 | X-H torsion
[ 27231 17044 17043 17042 ] final -127.17 input    0.00 | X-H torsion
[ 27233 18736 18735 18734 ] final  -18.30 input   -0.00 | X-H torsion
[ 27235 18588 18587 18586 ] final   -5.80 input    0.00 | X-H torsion
[ 27238 18907 18906 18905 ] final -119.04 input    0.00 | X-H torsion
[ 27240 19000 18999 18998 ] final   93.78 input    0.00 | X-H torsion
[ 27243 17173 17172 17171 ] final -137.99 input    0.00 | X-H torsion
[ 27245 18350 18349 18348 ] final  -70.75 input    0.00 | X-H torsion
[ 27248 11406 11405 11404 ] final -111.68 input   -0.00 | X-H torsion
[ 27250 18195 18194 18193 ] final  -71.28 input    0.00 | X-H torsion
[ 27254 17215 17214 17213 ] final -150.07 input   -0.00 | X-H torsion
[ 27260 18312 18311 18310 ] final  142.39 input   -0.00 | X-H torsion
[ 27262 18444 18443 18442 ] final   57.11 input    0.00 | X-H torsion
[ 27265 18270 18269 18268 ] final  -47.44 input    0.00 | X-H torsion
[ 27273 16936 16935 16934 ] final  172.28 input   -0.00 | X-H torsion

> <Gold.Protein.ActiveResidues>
 TRP414  CYS420  VAL421  GLY422  LEU460  SER462  ALA463  SER482  GLN483  ILE485 
 ARG486  TYR487  ASP500  ASN503  TRP566  TYR567  LEU569  PRO570  ALA571  VAL572 
 SER573  ASN574  PHE589  SER590  GLY591  TRP592  TYR593  MET594  GLY595  THR596 
 GLU597  ILE598  GLY599  VAL600  ARG601  ASP602  TYR603  ARG608  ILE653  VAL654 
 TRP683  PRO687  HEM750  H4B760 

> <Gold.Protein.RotatedAtoms>
  194.9161   11.3736   53.6500 H   0  0  0  0  0  0  0  0  0  0  0  0  # atno 7486 bound_to 7448
  195.7728    9.0473   55.0680 H   0  0  0  0  0  0  0  0  0  0  0  0  # atno 7521 bound_to 7509
  189.6142    1.1872   51.5862 H   0  0  0  0  0  0  0  0  0  0  0  0  # atno 10110 bound_to 10088
  186.7740    1.9684   47.3371 H   0  0  0  0  0  0  0  0  0  0  0  0  # atno 10146 bound_to 10126
  175.5594   16.2047   47.2318 H   0  0  0  0  0  0  0  0  0  0  0  0  # atno 11813 bound_to 11769
  176.0291   13.1156   52.9252 H   0  0  0  0  0  0  0  0  0  0  0  0  # atno 16969 bound_to 16933
  180.0210   15.8122   49.8082 H   0  0  0  0  0  0  0  0  0  0  0  0  # atno 16977 bound_to 16944
  184.0360   10.0592   48.0534 H   0  0  0  0  0  0  0  0  0  0  0  0  # atno 17185 bound_to 17170
  185.9913   10.4696   46.0563 H   0  0  0  0  0  0  0  0  0  0  0  0  # atno 17233 bound_to 17212
  184.7474   12.2871   42.5883 H   0  0  0  0  0  0  0  0  0  0  0  0  # atno 17293 bound_to 17275
  186.8332    6.8326   41.7710 H   0  0  0  0  0  0  0  0  0  0  0  0  # atno 18225 bound_to 18192
  187.4154    6.4837   45.4884 H   0  0  0  0  0  0  0  0  0  0  0  0  # atno 18289 bound_to 18267
  184.5406    3.9258   47.8147 H   0  0  0  0  0  0  0  0  0  0  0  0  # atno 18293 bound_to 18272
  186.6122    5.2777   48.8059 H   0  0  0  0  0  0  0  0  0  0  0  0  # atno 18324 bound_to 18309
  186.7447    5.0514   52.8187 H   0  0  0  0  0  0  0  0  0  0  0  0  # atno 18399 bound_to 18347
  184.2002    7.9600   55.3128 H   0  0  0  0  0  0  0  0  0  0  0  0  # atno 18486 bound_to 18441
  181.6894   14.5168   52.3272 H   0  0  0  0  0  0  0  0  0  0  0  0  # atno 18494 bound_to 18452
  187.5860   11.0780   56.1231 H   0  0  0  0  0  0  0  0  0  0  0  0  # atno 18554 bound_to 18521
  187.1748   12.6684   59.8441 H   0  0  0  0  0  0  0  0  0  0  0  0  # atno 18600 bound_to 18585
  188.7474   15.3158   59.6234 H   0  0  0  0  0  0  0  0  0  0  0  0  # atno 18650 bound_to 18622
  187.3319   15.7589   58.0304 H   0  0  0  0  0  0  0  0  0  0  0  0  # atno 18707 bound_to 18674
  184.1939   16.2515   56.2378 H   0  0  0  0  0  0  0  0  0  0  0  0  # atno 18768 bound_to 18733
  182.8952   18.0677   58.6443 H   0  0  0  0  0  0  0  0  0  0  0  0  # atno 18820 bound_to 18805
  183.6654   19.6666   60.9373 H   0  0  0  0  0  0  0  0  0  0  0  0  # atno 18866 bound_to 18836
  184.2874   20.5800   57.9696 H   0  0  0  0  0  0  0  0  0  0  0  0  # atno 18950 bound_to 18904
  183.4946   21.6054   55.7982 H   0  0  0  0  0  0  0  0  0  0  0  0  # atno 19025 bound_to 18997
  181.4629   22.0287   56.4379 H   0  0  0  0  0  0  0  0  0  0  0  0  # atno 19094 bound_to 19049
  186.5923    7.3307   59.4886 H   0  0  0  0  0  0  0  0  0  0  0  0  # atno 22436 bound_to 22408
  180.3802   14.8020   48.5845 LP  0  0  0  0  0  0  0  0  0  0  0  0  # atno 27193 bound_to 16944
  181.1449   14.6549   50.0198 LP  0  0  0  0  0  0  0  0  0  0  0  0  # atno 27194 bound_to 16944
  181.0928   13.2311   51.5272 LP  0  0  0  0  0  0  0  0  0  0  0  0  # atno 27195 bound_to 18452
  182.6247   13.7267   51.2549 LP  0  0  0  0  0  0  0  0  0  0  0  0  # atno 27196 bound_to 18452
  186.4314   10.0787   56.9766 LP  0  0  0  0  0  0  0  0  0  0  0  0  # atno 27197 bound_to 18521
  186.1925   13.1096   56.9833 LP  0  0  0  0  0  0  0  0  0  0  0  0  # atno 27198 bound_to 18524
  186.1128   14.2026   58.3246 LP  0  0  0  0  0  0  0  0  0  0  0  0  # atno 27199 bound_to 18524
  185.8895   18.8920   59.3818 LP  0  0  0  0  0  0  0  0  0  0  0  0  # atno 27200 bound_to 18619
  186.1112   18.6643   57.6792 LP  0  0  0  0  0  0  0  0  0  0  0  0  # atno 27201 bound_to 18619
  185.7853   16.3713   58.5603 LP  0  0  0  0  0  0  0  0  0  0  0  0  # atno 27202 bound_to 18674
  185.0210   19.0055   55.9385 LP  0  0  0  0  0  0  0  0  0  0  0  0  # atno 27203 bound_to 18677
  183.7024   18.2002   55.1557 LP  0  0  0  0  0  0  0  0  0  0  0  0  # atno 27204 bound_to 18677
  184.3447   16.4530   57.9704 LP  0  0  0  0  0  0  0  0  0  0  0  0  # atno 27209 bound_to 18733
  185.9229   21.1247   58.2469 LP  0  0  0  0  0  0  0  0  0  0  0  0  # atno 27210 bound_to 18904
  183.5625   19.8792   55.5411 LP  0  0  0  0  0  0  0  0  0  0  0  0  # atno 27211 bound_to 18997
  184.5530    7.7767   48.2519 LP  0  0  0  0  0  0  0  0  0  0  0  0  # atno 27223 bound_to 17119
  185.4618    8.9084   49.1970 LP  0  0  0  0  0  0  0  0  0  0  0  0  # atno 27224 bound_to 17119
  182.4368   10.2630   47.3784 LP  0  0  0  0  0  0  0  0  0  0  0  0  # atno 27225 bound_to 17170
  184.7275   10.1560   44.8869 LP  0  0  0  0  0  0  0  0  0  0  0  0  # atno 27226 bound_to 17212
  179.6989   12.6600   46.6737 LP  0  0  0  0  0  0  0  0  0  0  0  0  # atno 27227 bound_to 11596
  179.0202   13.9689   47.5828 LP  0  0  0  0  0  0  0  0  0  0  0  0  # atno 27228 bound_to 11596
  180.9941    9.6055   48.3174 LP  0  0  0  0  0  0  0  0  0  0  0  0  # atno 27231 bound_to 17044
  179.6538    9.8246   49.3924 LP  0  0  0  0  0  0  0  0  0  0  0  0  # atno 27232 bound_to 17044
  181.6812   19.3730   57.1065 LP  0  0  0  0  0  0  0  0  0  0  0  0  # atno 27233 bound_to 18736
  181.3781   19.6124   58.7950 LP  0  0  0  0  0  0  0  0  0  0  0  0  # atno 27234 bound_to 18736
  183.4063   14.9289   59.9212 LP  0  0  0  0  0  0  0  0  0  0  0  0  # atno 27235 bound_to 18588
  184.3777   16.3624   59.9611 LP  0  0  0  0  0  0  0  0  0  0  0  0  # atno 27236 bound_to 18588
  182.5304   16.6072   59.5386 LP  0  0  0  0  0  0  0  0  0  0  0  0  # atno 27237 bound_to 18805
  182.4606   23.2948   55.9577 LP  0  0  0  0  0  0  0  0  0  0  0  0  # atno 27238 bound_to 18907
  183.7586   23.5851   54.8482 LP  0  0  0  0  0  0  0  0  0  0  0  0  # atno 27239 bound_to 18907
  178.9711   21.8518   54.7845 LP  0  0  0  0  0  0  0  0  0  0  0  0  # atno 27240 bound_to 19000
  180.0716   23.1869   54.7031 LP  0  0  0  0  0  0  0  0  0  0  0  0  # atno 27241 bound_to 19000
  180.7264   20.4862   56.8051 LP  0  0  0  0  0  0  0  0  0  0  0  0  # atno 27242 bound_to 19049
  183.8376   10.7410   43.2287 LP  0  0  0  0  0  0  0  0  0  0  0  0  # atno 27243 bound_to 17173
  182.5557   10.8539   44.3881 LP  0  0  0  0  0  0  0  0  0  0  0  0  # atno 27244 bound_to 17173
  187.9694    7.6165   54.6879 LP  0  0  0  0  0  0  0  0  0  0  0  0  # atno 27245 bound_to 18350
  187.3533    8.8921   53.6913 LP  0  0  0  0  0  0  0  0  0  0  0  0  # atno 27246 bound_to 18350
  185.8697    7.8012   54.8209 LP  0  0  0  0  0  0  0  0  0  0  0  0  # atno 27247 bound_to 18441
  184.8598   13.6378   42.2564 LP  0  0  0  0  0  0  0  0  0  0  0  0  # atno 27248 bound_to 11406
  185.3298   15.0835   43.0865 LP  0  0  0  0  0  0  0  0  0  0  0  0  # atno 27249 bound_to 11406
  187.3704    8.6124   45.3441 LP  0  0  0  0  0  0  0  0  0  0  0  0  # atno 27250 bound_to 18195
  185.7028    8.1447   45.3220 LP  0  0  0  0  0  0  0  0  0  0  0  0  # atno 27251 bound_to 18195
  186.9696   10.0360   41.6368 LP  0  0  0  0  0  0  0  0  0  0  0  0  # atno 27254 bound_to 17215
  186.6162    9.4129   43.2138 LP  0  0  0  0  0  0  0  0  0  0  0  0  # atno 27255 bound_to 17215
  186.4560   12.1554   42.2733 LP  0  0  0  0  0  0  0  0  0  0  0  0  # atno 27256 bound_to 17275
  186.7890    4.8559   45.5804 LP  0  0  0  0  0  0  0  0  0  0  0  0  # atno 27257 bound_to 18267
  187.1805    6.7598   49.5458 LP  0  0  0  0  0  0  0  0  0  0  0  0  # atno 27258 bound_to 18309
  186.8042    6.6942   52.2097 LP  0  0  0  0  0  0  0  0  0  0  0  0  # atno 27259 bound_to 18347
  184.4438    4.5322   52.3501 LP  0  0  0  0  0  0  0  0  0  0  0  0  # atno 27260 bound_to 18312
  184.6364    4.8342   50.6555 LP  0  0  0  0  0  0  0  0  0  0  0  0  # atno 27261 bound_to 18312
  186.3499    7.9013   57.5731 LP  0  0  0  0  0  0  0  0  0  0  0  0  # atno 27262 bound_to 18444
  186.0544    9.1252   58.7625 LP  0  0  0  0  0  0  0  0  0  0  0  0  # atno 27263 bound_to 18444
  194.7867    9.2158   53.6398 LP  0  0  0  0  0  0  0  0  0  0  0  0  # atno 27264 bound_to 7509
  186.7592    3.4212   47.6860 LP  0  0  0  0  0  0  0  0  0  0  0  0  # atno 27265 bound_to 18270
  188.2498    3.7541   48.5029 LP  0  0  0  0  0  0  0  0  0  0  0  0  # atno 27266 bound_to 18270
  196.5985   11.3308   53.1661 LP  0  0  0  0  0  0  0  0  0  0  0  0  # atno 27267 bound_to 7448
  186.0490   11.3334   59.7901 LP  0  0  0  0  0  0  0  0  0  0  0  0  # atno 27268 bound_to 18585
  188.5768    2.3757   51.1868 LP  0  0  0  0  0  0  0  0  0  0  0  0  # atno 27269 bound_to 10088
  190.1794    2.5696   50.9398 LP  0  0  0  0  0  0  0  0  0  0  0  0  # atno 27270 bound_to 10088
  185.2237    4.1188   46.3506 LP  0  0  0  0  0  0  0  0  0  0  0  0  # atno 27271 bound_to 18272
  183.6350    4.4324   46.5614 LP  0  0  0  0  0  0  0  0  0  0  0  0  # atno 27272 bound_to 18272
  179.1267   10.2070   54.3913 LP  0  0  0  0  0  0  0  0  0  0  0  0  # atno 27273 bound_to 16936
  178.5304   11.7462   53.8665 LP  0  0  0  0  0  0  0  0  0  0  0  0  # atno 27274 bound_to 16936

> <Gold.Score>
     Fitness  S(hb_ext) S(vdw_ext)  S(hb_int)    S(int)      intcor
     36.78       3.65      24.23       0.00      -0.18      -0.77

> <Gold.Goldscore.Fitness>
36.7807

> <Gold.Goldscore.Internal.Vdw>
-0.5819

> <Gold.Goldscore.Internal.Torsion>
-0.3670

> <Gold.Goldscore.External.Vdw>
24.2291

> <Gold.Goldscore.Internal.HBond>
0.0000

> <Gold.Goldscore.External.HBond>
3.6458

> <Gold.Goldscore.Internal.Correction>
-0.7686

> <Gold.Goldscore.Hbonds>
donor molecule, donor type, donor heavy atom, donor atom, acceptor molecule, acceptor atom, score
      P1  H 17212 17233       L1    11  0.58
      L1  H    10    23       P1 18309  0.42

> <Gold.Goldscore.Internal.Vdw.Weighted>
-0.5819

> <Gold.Goldscore.Internal.Torsion.Weighted>
-0.3670

> <Gold.Goldscore.External.Vdw.Weighted>
33.3151

> <Gold.Goldscore.Internal.HBond.Weighted>
0.0000

> <Gold.Goldscore.External.HBond.Weighted>
3.6458

> <Gold.Goldscore.Internal.Correction.Weighted>
-0.7686

> <Gold.Rescore>
     Score     S(PLP)   S(hbond)     S(cho)   S(metal)  DE(clash)   DE(tors)     intcor
    -12.51      13.48       0.36       0.00       0.00       0.00       0.05       ----

> <Gold.PLP.Fitness>
-12.5068

> <Gold.PLP.PLP>
13.4829

> <Gold.PLP.part.hbond>
-1.2121

> <Gold.PLP.part.metal>
0.0000

> <Gold.PLP.part.buried>
41.8168

> <Gold.PLP.part.nonpolar>
-28.0885

> <Gold.PLP.part.repulsive>
10.3059

> <Gold.PLP.ligand.clash>
0.0000

> <Gold.PLP.ligand.torsion>
0.0482

> <Gold.PLP.Chemscore.Hbond>
0.3575

> <Gold.PLP.Chemscore.CHOScore>
0.0000

> <Gold.PLP.Chemscore.Metal>
0.0000

> <Gold.Chemscore.Hbonds>
donor molecule, donor type, donor heavy atom, donor atom, acceptor molecule, acceptor atom, score
      L1  H    10    23       P1 18309  0.34

> <Gold.PLP.Chemscore.Internal.Correction>
   9.000000E+99

