@<TRIPOS>MOLECULE
CT1002167954
    29    30     1     0     0
SMALL
NO_CHARGES
****
Generated from the CSD

@<TRIPOS>ATOM
     1 C1      -0.0804   1.5353   0.0963   C.3       1 RES1   0.0000
     2 C2      -0.0100  -0.0030   0.0100   C.ar      1 RES1   0.0000
     3 C3       1.3592   2.0351   0.0187   C.2       1 RES1   0.0000
     4 C4      -0.9595   1.9879  -1.0643   C.2       1 RES1   0.0000
     5 C5      -0.7123   2.0593   1.4069   C.3       1 RES1   0.0000
     6 C6      -0.3648  -0.7909   1.1009   C.ar      1 RES1   0.0000
     7 C7       0.4045  -0.6475  -1.1525   C.ar      1 RES1   0.0000
     8 N8       1.7625   2.6218  -1.1445   N.am      1 RES1   0.0000
     9 O9       2.1401   1.8812   0.9497   O.2       1 RES1   0.0000
    10 N10     -0.3781   2.7300  -2.0588   N.am      1 RES1   0.0000
    11 O11     -2.1466   1.6945  -1.1349   O.2       1 RES1   0.0000
    12 C12     -0.7811   3.5760   1.4908   C.3       1 RES1   0.0000
    13 C13     -0.3101  -2.1731   1.0313   C.ar      1 RES1   0.0000
    14 C14      0.4587  -2.0299  -1.2199   C.ar      1 RES1   0.0000
    15 C15      0.9499   3.0414  -2.1669   C.2       1 RES1   0.0000
    16 C16      0.1012  -2.7935  -0.1291   C.ar      1 RES1   0.0000
    17 O17      1.4068   3.6665  -3.1196   O.2       1 RES1   0.0000
    18 H18     -1.7279   1.6543   1.4958   H         1 RES1   0.0000
    19 H19     -0.1266   1.6850   2.2556   H         1 RES1   0.0000
    20 H20     -0.6886  -0.3204   2.0233   H         1 RES1   0.0000
    21 H21      0.6915  -0.0670  -2.0227   H         1 RES1   0.0000
    22 H22      2.7606   2.7614  -1.2654   H         1 RES1   0.0000
    23 H23     -0.9922   3.0831  -2.7858   H         1 RES1   0.0000
    24 H24     -1.2325   3.8903   2.4295   H         1 RES1   0.0000
    25 H25      0.2143   4.0112   1.4310   H         1 RES1   0.0000
    26 H26     -1.3775   3.9807   0.6757   H         1 RES1   0.0000
    27 H27     -0.5912  -2.7695   1.8930   H         1 RES1   0.0000
    28 H28      0.7836  -2.5139  -2.1350   H         1 RES1   0.0000
    29 H29      0.1436  -3.8763  -0.1835   H         1 RES1   0.0000
@<TRIPOS>BOND
     1     1     2    1
     2     1     3    1
     3     1     4    1
     4     1     5    1
     5     2     6   ar
     6     2     7   ar
     7     3     8   am
     8     3     9    2
     9     4    10   am
    10     4    11    2
    11     5    12    1
    12     5    18    1
    13     5    19    1
    14     6    13   ar
    15     6    20    1
    16     7    14   ar
    17     7    21    1
    18     8    15   am
    19     8    22    1
    20    10    15   am
    21    10    23    1
    22    12    24    1
    23    12    25    1
    24    12    26    1
    25    13    16   ar
    26    13    27    1
    27    14    16   ar
    28    14    28    1
    29    15    17    2
    30    16    29    1
@<TRIPOS>SUBSTRUCTURE
     1 RES1        1 GROUP             0 ****  ****    0  
