#       Name:                CT1002167954
#       Creating user name   hitesit
#       Creation time:       Sun Apr 16 22:51:04 2023


#       File generated by GOLD software.
#

@<TRIPOS>MOLECULE
CT1002167954|ligand_prepared|mol2|1|dock4
    29    30     1
SMALL
NO_CHARGES


@<TRIPOS>ATOM
      1 C1          -9.5891  -8.2912  17.3899 C.3            1 RES1               0.0000
      2 C2          -9.2197  -9.7279  16.9676 C.ar           1 RES1               0.0000
      3 C3          -8.5804  -7.3715  16.7081 C.2            1 RES1               0.0000
      4 C4         -11.0307  -8.0728  16.9442 C.2            1 RES1               0.0000
      5 C5          -9.5193  -8.0512  18.9161 C.3            1 RES1               0.0000
      6 C6          -8.9680 -10.7055  17.9255 C.ar           1 RES1               0.0000
      7 C7          -9.1296 -10.0907  15.6263 C.ar           1 RES1               0.0000
      8 N8          -9.0152  -6.6329  15.6473 N.am           1 RES1               0.0000
      9 O9          -7.4114  -7.3247  17.0706 O.2            1 RES1               0.0000
     10 N10        -11.2667  -7.1402  15.9683 N.am           1 RES1               0.0000
     11 O11        -11.9624  -8.7117  17.4174 O.2            1 RES1               0.0000
     12 C12         -9.8514  -6.6258  19.3284 C.3            1 RES1               0.0000
     13 C13         -8.6410 -11.9997  17.5561 C.ar           1 RES1               0.0000
     14 C14         -8.8022 -11.3854  15.2591 C.ar           1 RES1               0.0000
     15 C15        -10.3210  -6.4323  15.2780 C.2            1 RES1               0.0000
     16 C16         -8.5583 -12.3407  16.2228 C.ar           1 RES1               0.0000
     17 O17        -10.6082  -5.6511  14.3755 O.2            1 RES1               0.0000
     18 H18        -10.2186  -8.7346  19.4133 H              1 RES1               0.0000
     19 H19         -8.5081  -8.2933  19.2657 H              1 RES1               0.0000
     20 H20         -9.0260 -10.4553  18.9795 H              1 RES1               0.0000
     21 H21         -9.3163  -9.3555  14.8510 H              1 RES1               0.0000
     22 H22         -8.3037  -6.1886  15.0757 H              1 RES1               0.0000
     23 H23        -12.2374  -6.9566  15.7350 H              1 RES1               0.0000
     24 H24         -9.7876  -6.5118  20.4085 H              1 RES1               0.0000
     25 H25         -9.1595  -5.9210  18.8718 H              1 RES1               0.0000
     26 H26        -10.8599  -6.3597  19.0185 H              1 RES1               0.0000
     27 H27         -8.4487 -12.7475  18.3184 H              1 RES1               0.0000
     28 H28         -8.7376 -11.6491  14.2086 H              1 RES1               0.0000
     29 H29         -8.3025 -13.3546  15.9337 H              1 RES1               0.0000
@<TRIPOS>BOND
    1    1    2 1     
    2    1    3 1     
    3    1    4 1     
    4    1    5 1     
    5    2    6 ar    
    6    2    7 ar    
    7    3    8 1     
    8    3    9 2     
    9    4   10 1     
   10    4   11 2     
   11    5   12 1     
   12    5   18 1     
   13    5   19 1     
   14    6   13 ar    
   15    6   20 1     
   16    7   14 ar    
   17    7   21 1     
   18    8   15 1     
   19    8   22 1     
   20   10   15 1     
   21   10   23 1     
   22   12   24 1     
   23   12   25 1     
   24   12   26 1     
   25   13   16 ar    
   26   13   27 1     
   27   14   16 ar    
   28   14   28 1     
   29   15   17 2     
   30   16   29 1     
@<TRIPOS>SUBSTRUCTURE
      1 RES1           1
@<TRIPOS>SET
DONOR_HYDROGENS      STATIC     ATOMS    <user>   **** ""
2 22 23
ATOM$RED        STATIC     ATOMS    COLORGROUP SYSTEM
2 22 23
@<TRIPOS>COMMENT
> <Gold.Version>
2022.3.0

> <Gold.Id.Protein>
unknown|3ovv_clean|pdb

> <Gold.Protein.RotatedTorsions>
[  602  597  595  592 ] final    4.71 input   59.96 | X-H torsion
[  622  617  616  613 ] final  161.78 input   59.98 | X-H torsion
[ 2635 2624 2623 2622 ] final  112.01 input   60.00 | X-H torsion
[ 3186 3179 3177 3174 ] final  -68.56 input   59.97 | X-H torsion
[ 5212 5203 5202 5200 ] final   83.57 input   59.98 | X-H torsion

> <Gold.Protein.ActiveResidues>
 GLY50   THR51   GLY52   SER53   PHE54   GLY55   ARG56   VAL57   LYS72   GLU127 
 PHE129  ASP166  LYS168  GLU170  ASN171  THR183  ASP184  THR201  TYR330 

> <Gold.Protein.RotatedAtoms>
   -6.1388   -2.5406   13.9739 H   0  0  0  0  0  0  0  0  0  0  0  0  # atno 602  bound_to 597 
   -7.5739    2.0570   21.9956 H   0  0  0  0  0  0  0  0  0  0  0  0  # atno 622  bound_to 617 
  -14.5641   -1.1515   20.0676 H   0  0  0  0  0  0  0  0  0  0  0  0  # atno 2635 bound_to 2624
  -13.9395   -1.2173   18.5344 H   0  0  0  0  0  0  0  0  0  0  0  0  # atno 2636 bound_to 2624
  -15.3923   -0.4673   18.8062 H   0  0  0  0  0  0  0  0  0  0  0  0  # atno 2637 bound_to 2624
  -15.7162    0.8195   20.4890 H   0  0  0  0  0  0  0  0  0  0  0  0  # atno 3186 bound_to 3179
   -8.5517   -5.2686   11.5735 H   0  0  0  0  0  0  0  0  0  0  0  0  # atno 5212 bound_to 5203
   -5.0670   -2.3401   12.7661 LP  0  0  0  0  0  0  0  0  0  0  0  0  # atno 5529 bound_to 597 
   -5.1812   -1.2251   13.9537 LP  0  0  0  0  0  0  0  0  0  0  0  0  # atno 5530 bound_to 597 
   -7.3829    0.9693   20.8004 LP  0  0  0  0  0  0  0  0  0  0  0  0  # atno 5533 bound_to 617 
   -7.1590    2.5596   20.5045 LP  0  0  0  0  0  0  0  0  0  0  0  0  # atno 5534 bound_to 617 
  -16.5052   -0.5409   20.0700 LP  0  0  0  0  0  0  0  0  0  0  0  0  # atno 5539 bound_to 3179
  -16.5164   -0.0322   21.6217 LP  0  0  0  0  0  0  0  0  0  0  0  0  # atno 5540 bound_to 3179
   -8.9537   -5.4855   10.0116 LP  0  0  0  0  0  0  0  0  0  0  0  0  # atno 5541 bound_to 5203
   -8.7949   -3.9764   10.6149 LP  0  0  0  0  0  0  0  0  0  0  0  0  # atno 5542 bound_to 5203

> <Gold.Score>
     Fitness  S(hb_ext) S(vdw_ext)  S(hb_int)    S(int)      intcor
     44.85       0.80      32.66       0.00      -0.85      -0.79

> <Gold.Goldscore.Fitness>
44.8501

> <Gold.Goldscore.Internal.Vdw>
-1.2651

> <Gold.Goldscore.Internal.Torsion>
-0.3712

> <Gold.Goldscore.External.Vdw>
32.6559

> <Gold.Goldscore.Internal.HBond>
0.0000

> <Gold.Goldscore.External.HBond>
0.7995

> <Gold.Goldscore.Internal.Correction>
-0.7850

> <Gold.Goldscore.Hbonds>
donor molecule, donor type, donor heavy atom, donor atom, acceptor molecule, acceptor atom, score
      L1  H    10    23       P1  2655  0.40

> <Gold.Goldscore.Internal.Vdw.Weighted>
-1.2651

> <Gold.Goldscore.Internal.Torsion.Weighted>
-0.3712

> <Gold.Goldscore.External.Vdw.Weighted>
44.9019

> <Gold.Goldscore.Internal.HBond.Weighted>
0.0000

> <Gold.Goldscore.External.HBond.Weighted>
0.7995

> <Gold.Goldscore.Internal.Correction.Weighted>
-0.7850

> <Gold.Rescore>
     Score     S(PLP)   S(hbond)     S(cho)   S(metal)  DE(clash)   DE(tors)     intcor
     41.29     -40.18       1.04       0.00       0.00       0.00       1.01       ----

> <Gold.PLP.Fitness>
41.2883

> <Gold.PLP.PLP>
-40.1821

> <Gold.PLP.part.hbond>
-2.5273

> <Gold.PLP.part.metal>
0.0000

> <Gold.PLP.part.buried>
1.0002

> <Gold.PLP.part.nonpolar>
-44.6608

> <Gold.PLP.part.repulsive>
4.4250

> <Gold.PLP.ligand.clash>
0.0000

> <Gold.PLP.ligand.torsion>
1.0124

> <Gold.PLP.Chemscore.Hbond>
1.0437

> <Gold.PLP.Chemscore.CHOScore>
0.0000

> <Gold.PLP.Chemscore.Metal>
0.0000

> <Gold.Chemscore.Hbonds>
donor molecule, donor type, donor heavy atom, donor atom, acceptor molecule, acceptor atom, score
      L1  H    10    23       P1  2655  1.00

> <Gold.PLP.Chemscore.Internal.Correction>
   9.000000E+99

#       Name:                CT1002167954
#       Creating user name   hitesit
#       Creation time:       Sun Apr 16 22:51:10 2023


#       File generated by GOLD software.
#

@<TRIPOS>MOLECULE
CT1002167954|ligand_prepared|mol2|1|dock10
    29    30     1
SMALL
NO_CHARGES


@<TRIPOS>ATOM
      1 C1          -9.3934  -7.5999  18.0120 C.3            1 RES1               0.0000
      2 C2          -9.2878  -9.1370  17.9408 C.ar           1 RES1               0.0000
      3 C3          -8.6430  -7.0622  16.7971 C.2            1 RES1               0.0000
      4 C4         -10.8830  -7.2745  18.0174 C.2            1 RES1               0.0000
      5 C5          -8.7663  -6.9889  19.2867 C.3            1 RES1               0.0000
      6 C6          -9.3946  -9.7989  16.7212 C.ar           1 RES1               0.0000
      7 C7          -9.0812  -9.9050  19.0836 C.ar           1 RES1               0.0000
      8 N8          -9.3841  -6.5620  15.7672 N.am           1 RES1               0.0000
      9 O9          -7.4212  -7.1124  16.7269 O.2            1 RES1               0.0000
     10 N10        -11.3967  -6.5997  16.9410 N.am           1 RES1               0.0000
     11 O11        -11.6196  -7.6110  18.9363 O.2            1 RES1               0.0000
     12 C12         -8.6043  -5.4782  19.2267 C.3            1 RES1               0.0000
     13 C13         -9.2956 -11.1783  16.6464 C.ar           1 RES1               0.0000
     14 C14         -8.9828 -11.2845  19.0066 C.ar           1 RES1               0.0000
     15 C15        -10.7207  -6.2557  15.8021 C.2            1 RES1               0.0000
     16 C16         -9.0892 -11.9220  17.7888 C.ar           1 RES1               0.0000
     17 O17        -11.2649  -5.6980  14.8535 O.2            1 RES1               0.0000
     18 H18         -9.3977  -7.2424  20.1472 H              1 RES1               0.0000
     19 H19         -7.7811  -7.4435  19.4483 H              1 RES1               0.0000
     20 H20         -9.5596  -9.2306  15.8119 H              1 RES1               0.0000
     21 H21         -8.9955  -9.4251  20.0525 H              1 RES1               0.0000
     22 H22         -8.8996  -6.4008  14.8899 H              1 RES1               0.0000
     23 H23        -12.3734  -6.3286  16.9937 H              1 RES1               0.0000
     24 H24         -8.1601  -5.1011  20.1455 H              1 RES1               0.0000
     25 H25         -7.9612  -5.1919  18.3971 H              1 RES1               0.0000
     26 H26         -9.5682  -4.9920  19.0918 H              1 RES1               0.0000
     27 H27         -9.3815 -11.6754  15.6858 H              1 RES1               0.0000
     28 H28         -8.8209 -11.8658  19.9083 H              1 RES1               0.0000
     29 H29         -9.0113 -13.0026  17.7299 H              1 RES1               0.0000
@<TRIPOS>BOND
    1    1    2 1     
    2    1    3 1     
    3    1    4 1     
    4    1    5 1     
    5    2    6 ar    
    6    2    7 ar    
    7    3    8 1     
    8    3    9 2     
    9    4   10 1     
   10    4   11 2     
   11    5   12 1     
   12    5   18 1     
   13    5   19 1     
   14    6   13 ar    
   15    6   20 1     
   16    7   14 ar    
   17    7   21 1     
   18    8   15 1     
   19    8   22 1     
   20   10   15 1     
   21   10   23 1     
   22   12   24 1     
   23   12   25 1     
   24   12   26 1     
   25   13   16 ar    
   26   13   27 1     
   27   14   16 ar    
   28   14   28 1     
   29   15   17 2     
   30   16   29 1     
@<TRIPOS>SUBSTRUCTURE
      1 RES1           1
@<TRIPOS>SET
DONOR_HYDROGENS      STATIC     ATOMS    <user>   **** ""
2 22 23
ATOM$RED        STATIC     ATOMS    COLORGROUP SYSTEM
2 22 23
@<TRIPOS>COMMENT
> <Gold.Version>
2022.3.0

> <Gold.Id.Protein>
unknown|3ovv_clean|pdb

> <Gold.Protein.RotatedTorsions>
[  602  597  595  592 ] final   45.57 input   59.96 | X-H torsion
[  622  617  616  613 ] final -175.52 input   59.98 | X-H torsion
[ 2635 2624 2623 2622 ] final  -34.16 input   60.00 | X-H torsion
[ 3186 3179 3177 3174 ] final  178.20 input   59.97 | X-H torsion
[ 5212 5203 5202 5200 ] final   87.26 input   59.98 | X-H torsion

> <Gold.Protein.ActiveResidues>
 GLY50   THR51   GLY52   SER53   PHE54   GLY55   ARG56   VAL57   LYS72   GLU127 
 PHE129  ASP166  LYS168  GLU170  ASN171  THR183  ASP184  THR201  TYR330 

> <Gold.Protein.RotatedAtoms>
   -6.0170   -1.9998   14.3200 H   0  0  0  0  0  0  0  0  0  0  0  0  # atno 602  bound_to 597 
   -7.5087    2.3937   21.8610 H   0  0  0  0  0  0  0  0  0  0  0  0  # atno 622  bound_to 617 
  -15.1551   -0.5332   18.4494 H   0  0  0  0  0  0  0  0  0  0  0  0  # atno 2635 bound_to 2624
  -14.9410   -0.9391   20.0415 H   0  0  0  0  0  0  0  0  0  0  0  0  # atno 2636 bound_to 2624
  -13.7998   -1.3638   18.9170 H   0  0  0  0  0  0  0  0  0  0  0  0  # atno 2637 bound_to 2624
  -16.4491   -0.4735   20.0020 H   0  0  0  0  0  0  0  0  0  0  0  0  # atno 3186 bound_to 3179
   -8.5463   -5.2122   11.5940 H   0  0  0  0  0  0  0  0  0  0  0  0  # atno 5212 bound_to 5203
   -5.5279   -2.7639   12.9691 LP  0  0  0  0  0  0  0  0  0  0  0  0  # atno 5529 bound_to 597 
   -4.8431   -1.3461   13.4021 LP  0  0  0  0  0  0  0  0  0  0  0  0  # atno 5530 bound_to 597 
   -7.4754    0.9269   21.1573 LP  0  0  0  0  0  0  0  0  0  0  0  0  # atno 5533 bound_to 617 
   -7.1322    2.2629   20.2833 LP  0  0  0  0  0  0  0  0  0  0  0  0  # atno 5534 bound_to 617 
  -16.5685   -0.1241   21.5871 LP  0  0  0  0  0  0  0  0  0  0  0  0  # atno 5539 bound_to 3179
  -15.7153    0.8527   20.5949 LP  0  0  0  0  0  0  0  0  0  0  0  0  # atno 5540 bound_to 3179
   -8.9443   -5.5324   10.0490 LP  0  0  0  0  0  0  0  0  0  0  0  0  # atno 5541 bound_to 5203
   -8.8098   -3.9863   10.5569 LP  0  0  0  0  0  0  0  0  0  0  0  0  # atno 5542 bound_to 5203

> <Gold.Score>
     Fitness  S(hb_ext) S(vdw_ext)  S(hb_int)    S(int)      intcor
     44.82       0.00      32.80       0.00      -0.28      -0.76

> <Gold.Goldscore.Fitness>
44.8240

> <Gold.Goldscore.Internal.Vdw>
-0.4313

> <Gold.Goldscore.Internal.Torsion>
-0.6047

> <Gold.Goldscore.External.Vdw>
32.8010

> <Gold.Goldscore.Internal.HBond>
0.0000

> <Gold.Goldscore.External.HBond>
0.0000

> <Gold.Goldscore.Internal.Correction>
-0.7585

> <Gold.Goldscore.Internal.Vdw.Weighted>
-0.4313

> <Gold.Goldscore.Internal.Torsion.Weighted>
-0.6047

> <Gold.Goldscore.External.Vdw.Weighted>
45.1014

> <Gold.Goldscore.Internal.HBond.Weighted>
0.0000

> <Gold.Goldscore.External.HBond.Weighted>
0.0000

> <Gold.Goldscore.Internal.Correction.Weighted>
-0.7585

> <Gold.Rescore>
     Score     S(PLP)   S(hbond)     S(cho)   S(metal)  DE(clash)   DE(tors)     intcor
     47.99     -48.72       0.77       0.00       0.00       0.00       1.52       ----

> <Gold.PLP.Fitness>
47.9855

> <Gold.PLP.PLP>
-48.7201

> <Gold.PLP.part.hbond>
-3.0000

> <Gold.PLP.part.metal>
0.0000

> <Gold.PLP.part.buried>
-2.2761

> <Gold.PLP.part.nonpolar>
-45.4014

> <Gold.PLP.part.repulsive>
1.0900

> <Gold.PLP.ligand.clash>
0.0000

> <Gold.PLP.ligand.torsion>
1.5170

> <Gold.PLP.Chemscore.Hbond>
0.7665

> <Gold.PLP.Chemscore.CHOScore>
0.0000

> <Gold.PLP.Chemscore.Metal>
0.0000

> <Gold.PLP.Chemscore.Internal.Correction>
   9.000000E+99

#       Name:                CT1002167954
#       Creating user name   hitesit
#       Creation time:       Sun Apr 16 22:51:08 2023


#       File generated by GOLD software.
#

@<TRIPOS>MOLECULE
CT1002167954|ligand_prepared|mol2|1|dock8
    29    30     1
SMALL
NO_CHARGES


@<TRIPOS>ATOM
      1 C1          -9.3669  -7.8130  17.0710 C.3            1 RES1               0.0000
      2 C2          -9.0523  -9.0845  16.2566 C.ar           1 RES1               0.0000
      3 C3         -10.3283  -8.2394  18.1765 C.2            1 RES1               0.0000
      4 C4          -8.0280  -7.2894  17.5786 C.2            1 RES1               0.0000
      5 C5         -10.0362  -6.6909  16.2438 C.3            1 RES1               0.0000
      6 C6          -8.9691 -10.3245  16.8827 C.ar           1 RES1               0.0000
      7 C7          -8.8459  -9.0336  14.8806 C.ar           1 RES1               0.0000
      8 N8          -9.8354  -8.3216  19.4455 N.am           1 RES1               0.0000
      9 O9         -11.4911  -8.5371  17.9325 O.2            1 RES1               0.0000
     10 N10         -7.8045  -7.3018  18.9305 N.am           1 RES1               0.0000
     11 O11         -7.1581  -6.8815  16.8189 O.2            1 RES1               0.0000
     12 C12        -10.5250  -5.5198  17.0816 C.3            1 RES1               0.0000
     13 C13         -8.6924 -11.4727  16.1591 C.ar           1 RES1               0.0000
     14 C14         -8.5691 -10.1830  14.1589 C.ar           1 RES1               0.0000
     15 C15         -8.6354  -7.8227  19.8846 C.2            1 RES1               0.0000
     16 C16         -8.4927 -11.4028  14.7968 C.ar           1 RES1               0.0000
     17 O17         -8.3407  -7.8467  21.0761 O.2            1 RES1               0.0000
     18 H18         -9.3159  -6.3197  15.5043 H              1 RES1               0.0000
     19 H19        -10.8885  -7.1147  15.6983 H              1 RES1               0.0000
     20 H20         -9.1209 -10.3987  17.9544 H              1 RES1               0.0000
     21 H21         -8.9000  -8.0848  14.3578 H              1 RES1               0.0000
     22 H22        -10.4123  -8.7982  20.1313 H              1 RES1               0.0000
     23 H23         -6.9385  -6.8840  19.2557 H              1 RES1               0.0000
     24 H24        -10.9860  -4.7613  16.4525 H              1 RES1               0.0000
     25 H25        -11.2620  -5.8486  17.8113 H              1 RES1               0.0000
     26 H26         -9.6988  -5.0584  17.6185 H              1 RES1               0.0000
     27 H27         -8.6321 -12.4300  16.6661 H              1 RES1               0.0000
     28 H28         -8.4120 -10.1232  13.0869 H              1 RES1               0.0000
     29 H29         -8.2764 -12.3024  14.2301 H              1 RES1               0.0000
@<TRIPOS>BOND
    1    1    2 1     
    2    1    3 1     
    3    1    4 1     
    4    1    5 1     
    5    2    6 ar    
    6    2    7 ar    
    7    3    8 1     
    8    3    9 2     
    9    4   10 1     
   10    4   11 2     
   11    5   12 1     
   12    5   18 1     
   13    5   19 1     
   14    6   13 ar    
   15    6   20 1     
   16    7   14 ar    
   17    7   21 1     
   18    8   15 1     
   19    8   22 1     
   20   10   15 1     
   21   10   23 1     
   22   12   24 1     
   23   12   25 1     
   24   12   26 1     
   25   13   16 ar    
   26   13   27 1     
   27   14   16 ar    
   28   14   28 1     
   29   15   17 2     
   30   16   29 1     
@<TRIPOS>SUBSTRUCTURE
      1 RES1           1
@<TRIPOS>SET
DONOR_HYDROGENS      STATIC     ATOMS    <user>   **** ""
2 22 23
ATOM$RED        STATIC     ATOMS    COLORGROUP SYSTEM
2 22 23
@<TRIPOS>COMMENT
> <Gold.Version>
2022.3.0

> <Gold.Id.Protein>
unknown|3ovv_clean|pdb

> <Gold.Protein.RotatedTorsions>
[  602  597  595  592 ] final  139.26 input   59.96 | X-H torsion
[  622  617  616  613 ] final -144.56 input   59.98 | X-H torsion
[ 2635 2624 2623 2622 ] final  -63.56 input   60.00 | X-H torsion
[ 3186 3179 3177 3174 ] final   24.41 input   59.97 | X-H torsion
[ 5212 5203 5202 5200 ] final  -30.68 input   59.98 | X-H torsion

> <Gold.Protein.ActiveResidues>
 GLY50   THR51   GLY52   SER53   PHE54   GLY55   ARG56   VAL57   LYS72   GLU127 
 PHE129  ASP166  LYS168  GLU170  ASN171  THR183  ASP184  THR201  TYR330 

> <Gold.Protein.RotatedAtoms>
   -5.0356   -1.2286   13.7654 H   0  0  0  0  0  0  0  0  0  0  0  0  # atno 602  bound_to 597 
   -7.3878    2.7120   21.4953 H   0  0  0  0  0  0  0  0  0  0  0  0  # atno 622  bound_to 617 
  -14.7643   -0.7066   18.2192 H   0  0  0  0  0  0  0  0  0  0  0  0  # atno 2635 bound_to 2624
  -15.2853   -0.7044   19.7921 H   0  0  0  0  0  0  0  0  0  0  0  0  # atno 2636 bound_to 2624
  -13.8461   -1.4251   19.3965 H   0  0  0  0  0  0  0  0  0  0  0  0  # atno 2637 bound_to 2624
  -16.2798    0.3379   21.6271 H   0  0  0  0  0  0  0  0  0  0  0  0  # atno 3186 bound_to 3179
   -8.9356   -5.5529   10.0753 H   0  0  0  0  0  0  0  0  0  0  0  0  # atno 5212 bound_to 5203
   -6.1398   -2.3653   14.1348 LP  0  0  0  0  0  0  0  0  0  0  0  0  # atno 5529 bound_to 597 
   -5.2196   -2.5216   12.7949 LP  0  0  0  0  0  0  0  0  0  0  0  0  # atno 5530 bound_to 597 
   -7.5736    1.1002   21.6194 LP  0  0  0  0  0  0  0  0  0  0  0  0  # atno 5533 bound_to 617 
   -7.1557    1.7691   20.1895 LP  0  0  0  0  0  0  0  0  0  0  0  0  # atno 5534 bound_to 617 
  -15.7661    0.6089   20.1067 LP  0  0  0  0  0  0  0  0  0  0  0  0  # atno 5539 bound_to 3179
  -16.6881   -0.6972   20.4393 LP  0  0  0  0  0  0  0  0  0  0  0  0  # atno 5540 bound_to 3179
   -8.8179   -3.9934   10.5250 LP  0  0  0  0  0  0  0  0  0  0  0  0  # atno 5541 bound_to 5203
   -8.5440   -5.1821   11.6106 LP  0  0  0  0  0  0  0  0  0  0  0  0  # atno 5542 bound_to 5203

> <Gold.Score>
     Fitness  S(hb_ext) S(vdw_ext)  S(hb_int)    S(int)      intcor
     44.15       3.06      30.25       0.00      -0.50      -0.76

> <Gold.Goldscore.Fitness>
44.1520

> <Gold.Goldscore.Internal.Vdw>
-0.7855

> <Gold.Goldscore.Internal.Torsion>
-0.4773

> <Gold.Goldscore.External.Vdw>
30.2517

> <Gold.Goldscore.Internal.HBond>
0.0000

> <Gold.Goldscore.External.HBond>
3.0603

> <Gold.Goldscore.Internal.Correction>
-0.7585

> <Gold.Goldscore.Hbonds>
donor molecule, donor type, donor heavy atom, donor atom, acceptor molecule, acceptor atom, score
      P1  H   932   945       L1    17  0.51

> <Gold.Goldscore.Internal.Vdw.Weighted>
-0.7855

> <Gold.Goldscore.Internal.Torsion.Weighted>
-0.4773

> <Gold.Goldscore.External.Vdw.Weighted>
41.5960

> <Gold.Goldscore.Internal.HBond.Weighted>
0.0000

> <Gold.Goldscore.External.HBond.Weighted>
3.0603

> <Gold.Goldscore.Internal.Correction.Weighted>
-0.7585

> <Gold.Rescore>
     Score     S(PLP)   S(hbond)     S(cho)   S(metal)  DE(clash)   DE(tors)     intcor
     42.83     -42.34       0.83       0.00       0.00       0.00       1.00       ----

> <Gold.PLP.Fitness>
42.8346

> <Gold.PLP.PLP>
-42.3358

> <Gold.PLP.part.hbond>
-2.6838

> <Gold.PLP.part.metal>
0.0000

> <Gold.PLP.part.buried>
0.6202

> <Gold.PLP.part.nonpolar>
-43.0348

> <Gold.PLP.part.repulsive>
1.4933

> <Gold.PLP.ligand.clash>
0.0000

> <Gold.PLP.ligand.torsion>
0.9986

> <Gold.PLP.Chemscore.Hbond>
0.8320

> <Gold.PLP.Chemscore.CHOScore>
0.0000

> <Gold.PLP.Chemscore.Metal>
0.0000

> <Gold.Chemscore.Hbonds>
donor molecule, donor type, donor heavy atom, donor atom, acceptor molecule, acceptor atom, score
      P1  H   932   945       L1    17  1.00

> <Gold.PLP.Chemscore.Internal.Correction>
   9.000000E+99

#       Name:                CT1002167954
#       Creating user name   hitesit
#       Creation time:       Sun Apr 16 22:51:06 2023


#       File generated by GOLD software.
#

@<TRIPOS>MOLECULE
CT1002167954|ligand_prepared|mol2|1|dock6
    29    30     1
SMALL
NO_CHARGES


@<TRIPOS>ATOM
      1 C1          -9.0421  -7.0494  18.6879 C.3            1 RES1               0.0000
      2 C2          -7.7226  -6.3172  19.0065 C.ar           1 RES1               0.0000
      3 C3          -8.9104  -7.5676  17.2588 C.2            1 RES1               0.0000
      4 C4          -9.1850  -8.1467  19.7368 C.2            1 RES1               0.0000
      5 C5         -10.2939  -6.1450  18.7691 C.3            1 RES1               0.0000
      6 C6          -7.5994  -5.5484  20.1599 C.ar           1 RES1               0.0000
      7 C7          -6.6210  -6.4029  18.1593 C.ar           1 RES1               0.0000
      8 N8          -8.7127  -8.9060  17.0877 N.am           1 RES1               0.0000
      9 O9          -8.9399  -6.8079  16.2984 O.2            1 RES1               0.0000
     10 N10         -9.1294  -9.4493  19.3150 N.am           1 RES1               0.0000
     11 O11         -9.3286  -7.8951  20.9269 O.2            1 RES1               0.0000
     12 C12        -11.5332  -6.7549  18.1334 C.3            1 RES1               0.0000
     13 C13         -6.4168  -4.8916  20.4574 C.ar           1 RES1               0.0000
     14 C14         -5.4393  -5.7451  18.4585 C.ar           1 RES1               0.0000
     15 C15         -8.8690  -9.8787  18.0422 C.2            1 RES1               0.0000
     16 C16         -5.3360  -4.9898  19.6072 C.ar           1 RES1               0.0000
     17 O17         -8.7807 -11.0681  17.7510 O.2            1 RES1               0.0000
     18 H18        -10.5070  -5.9308  19.8236 H              1 RES1               0.0000
     19 H19        -10.0742  -5.1925  18.2712 H              1 RES1               0.0000
     20 H20         -8.4400  -5.4574  20.8397 H              1 RES1               0.0000
     21 H21         -6.6797  -6.9906  17.2495 H              1 RES1               0.0000
     22 H22         -8.4216  -9.2121  16.1647 H              1 RES1               0.0000
     23 H23         -9.2979 -10.1651  20.0147 H              1 RES1               0.0000
     24 H24        -12.3821  -6.0797  18.2179 H              1 RES1               0.0000
     25 H25        -11.3653  -6.9577  17.0777 H              1 RES1               0.0000
     26 H26        -11.7955  -7.6916  18.6209 H              1 RES1               0.0000
     27 H27         -6.3410  -4.2973  21.3620 H              1 RES1               0.0000
     28 H28         -4.5914  -5.8247  17.7862 H              1 RES1               0.0000
     29 H29         -4.4096  -4.4754  19.8406 H              1 RES1               0.0000
@<TRIPOS>BOND
    1    1    2 1     
    2    1    3 1     
    3    1    4 1     
    4    1    5 1     
    5    2    6 ar    
    6    2    7 ar    
    7    3    8 1     
    8    3    9 2     
    9    4   10 1     
   10    4   11 2     
   11    5   12 1     
   12    5   18 1     
   13    5   19 1     
   14    6   13 ar    
   15    6   20 1     
   16    7   14 ar    
   17    7   21 1     
   18    8   15 1     
   19    8   22 1     
   20   10   15 1     
   21   10   23 1     
   22   12   24 1     
   23   12   25 1     
   24   12   26 1     
   25   13   16 ar    
   26   13   27 1     
   27   14   16 ar    
   28   14   28 1     
   29   15   17 2     
   30   16   29 1     
@<TRIPOS>SUBSTRUCTURE
      1 RES1           1
@<TRIPOS>SET
DONOR_HYDROGENS      STATIC     ATOMS    <user>   **** ""
2 22 23
ATOM$RED        STATIC     ATOMS    COLORGROUP SYSTEM
2 22 23
@<TRIPOS>COMMENT
> <Gold.Version>
2022.3.0

> <Gold.Id.Protein>
unknown|3ovv_clean|pdb

> <Gold.Protein.RotatedTorsions>
[  602  597  595  592 ] final  -25.14 input   59.96 | X-H torsion
[  622  617  616  613 ] final   91.53 input   59.98 | X-H torsion
[ 2635 2624 2623 2622 ] final   39.54 input   60.00 | X-H torsion
[ 3186 3179 3177 3174 ] final -137.29 input   59.97 | X-H torsion
[ 5212 5203 5202 5200 ] final  105.40 input   59.98 | X-H torsion

> <Gold.Protein.ActiveResidues>
 GLY50   THR51   GLY52   SER53   PHE54   GLY55   ARG56   VAL57   LYS72   GLU127 
 PHE129  ASP166  LYS168  GLU170  ASN171  THR183  ASP184  THR201  TYR330 

> <Gold.Protein.RotatedAtoms>
   -6.0165   -2.7920   13.5810 H   0  0  0  0  0  0  0  0  0  0  0  0  # atno 602  bound_to 597 
   -7.5603    1.0699   21.5640 H   0  0  0  0  0  0  0  0  0  0  0  0  # atno 622  bound_to 617 
  -15.4110   -0.5946   19.5660 H   0  0  0  0  0  0  0  0  0  0  0  0  # atno 2635 bound_to 2624
  -13.9676   -1.4038   19.6497 H   0  0  0  0  0  0  0  0  0  0  0  0  # atno 2636 bound_to 2624
  -14.5173   -0.8376   18.1922 H   0  0  0  0  0  0  0  0  0  0  0  0  # atno 2637 bound_to 2624
  -16.0478    0.0793   19.8108 H   0  0  0  0  0  0  0  0  0  0  0  0  # atno 3186 bound_to 3179
   -8.5332   -4.9213   11.6420 H   0  0  0  0  0  0  0  0  0  0  0  0  # atno 5212 bound_to 5203
   -4.8428   -1.9210   12.8658 LP  0  0  0  0  0  0  0  0  0  0  0  0  # atno 5529 bound_to 597 
   -5.5286   -1.3911   14.2498 LP  0  0  0  0  0  0  0  0  0  0  0  0  # atno 5530 bound_to 597 
   -7.1490    1.8330   20.1868 LP  0  0  0  0  0  0  0  0  0  0  0  0  # atno 5533 bound_to 617 
   -7.4067    2.6899   21.5528 LP  0  0  0  0  0  0  0  0  0  0  0  0  # atno 5534 bound_to 617 
  -16.7723   -0.6033   21.0985 LP  0  0  0  0  0  0  0  0  0  0  0  0  # atno 5539 bound_to 3179
  -15.9155    0.7755   21.2760 LP  0  0  0  0  0  0  0  0  0  0  0  0  # atno 5540 bound_to 3179
   -8.8882   -5.7223   10.2707 LP  0  0  0  0  0  0  0  0  0  0  0  0  # atno 5541 bound_to 5203
   -8.8791   -4.0894   10.2869 LP  0  0  0  0  0  0  0  0  0  0  0  0  # atno 5542 bound_to 5203

> <Gold.Score>
     Fitness  S(hb_ext) S(vdw_ext)  S(hb_int)    S(int)      intcor
     43.76       2.64      31.38       0.00      -2.03      -0.79

> <Gold.Goldscore.Fitness>
43.7566

> <Gold.Goldscore.Internal.Vdw>
-2.1274

> <Gold.Goldscore.Internal.Torsion>
-0.6883

> <Gold.Goldscore.External.Vdw>
31.3767

> <Gold.Goldscore.Internal.HBond>
0.0000

> <Gold.Goldscore.External.HBond>
2.6442

> <Gold.Goldscore.Internal.Correction>
-0.7850

> <Gold.Goldscore.Hbonds>
donor molecule, donor type, donor heavy atom, donor atom, acceptor molecule, acceptor atom, score
      P1  H   932   945       L1    11  0.44

> <Gold.Goldscore.Internal.Vdw.Weighted>
-2.1274

> <Gold.Goldscore.Internal.Torsion.Weighted>
-0.6883

> <Gold.Goldscore.External.Vdw.Weighted>
43.1430

> <Gold.Goldscore.Internal.HBond.Weighted>
0.0000

> <Gold.Goldscore.External.HBond.Weighted>
2.6442

> <Gold.Goldscore.Internal.Correction.Weighted>
-0.7850

> <Gold.Rescore>
     Score     S(PLP)   S(hbond)     S(cho)   S(metal)  DE(clash)   DE(tors)     intcor
     43.62     -42.47       0.99       0.00       0.00       0.62       0.60       ----

> <Gold.PLP.Fitness>
43.6205

> <Gold.PLP.PLP>
-42.4674

> <Gold.PLP.part.hbond>
-1.1269

> <Gold.PLP.part.metal>
0.0000

> <Gold.PLP.part.buried>
-3.3558

> <Gold.PLP.part.nonpolar>
-39.6887

> <Gold.PLP.part.repulsive>
0.3258

> <Gold.PLP.ligand.clash>
0.6178

> <Gold.PLP.ligand.torsion>
0.6015

> <Gold.PLP.Chemscore.Hbond>
0.9913

> <Gold.PLP.Chemscore.CHOScore>
0.0000

> <Gold.PLP.Chemscore.Metal>
0.0000

> <Gold.Chemscore.Hbonds>
donor molecule, donor type, donor heavy atom, donor atom, acceptor molecule, acceptor atom, score
      P1  H   932   945       L1    11  0.75

> <Gold.PLP.Chemscore.Internal.Correction>
   9.000000E+99

#       Name:                CT1002167954
#       Creating user name   hitesit
#       Creation time:       Sun Apr 16 22:51:01 2023


#       File generated by GOLD software.
#

@<TRIPOS>MOLECULE
CT1002167954|ligand_prepared|mol2|1|dock1
    29    30     1
SMALL
NO_CHARGES


@<TRIPOS>ATOM
      1 C1          -9.7386  -7.3712  17.1682 C.3            1 RES1               0.0000
      2 C2          -9.4522  -8.6412  17.9952 C.ar           1 RES1               0.0000
      3 C3         -11.2271  -7.0790  17.3334 C.2            1 RES1               0.0000
      4 C4          -8.8257  -6.2845  17.7253 C.2            1 RES1               0.0000
      5 C5          -9.4327  -7.5254  15.6602 C.3            1 RES1               0.0000
      6 C6          -9.3942  -9.8886  17.3810 C.ar           1 RES1               0.0000
      7 C7          -9.2417  -8.5810  19.3702 C.ar           1 RES1               0.0000
      8 N8         -11.5805  -6.0304  18.1305 N.am           1 RES1               0.0000
      9 O9         -12.0789  -7.7822  16.8040 O.2            1 RES1               0.0000
     10 N10         -9.4095  -5.2121  18.3473 N.am           1 RES1               0.0000
     11 O11         -7.6055  -6.3554  17.6460 O.2            1 RES1               0.0000
     12 C12         -9.4130  -6.2082  14.9007 C.3            1 RES1               0.0000
     13 C13         -9.1322 -11.0341  18.1142 C.ar           1 RES1               0.0000
     14 C14         -8.9801  -9.7278  20.1016 C.ar           1 RES1               0.0000
     15 C15        -10.7441  -5.0508  18.6022 C.2            1 RES1               0.0000
     16 C16         -8.9246 -10.9544  19.4748 C.ar           1 RES1               0.0000
     17 O17        -11.1878  -4.0843  19.2156 O.2            1 RES1               0.0000
     18 H18         -8.4569  -8.0135  15.5459 H              1 RES1               0.0000
     19 H19        -10.1897  -8.1804  15.2115 H              1 RES1               0.0000
     20 H20         -9.5574  -9.9713  16.3116 H              1 RES1               0.0000
     21 H21         -9.2817  -7.6269  19.8847 H              1 RES1               0.0000
     22 H22        -12.5569  -5.9689  18.4009 H              1 RES1               0.0000
     23 H23         -8.7920  -4.4647  18.6479 H              1 RES1               0.0000
     24 H24         -9.1939  -6.3733  13.8479 H              1 RES1               0.0000
     25 H25        -10.3763  -5.7075  14.9719 H              1 RES1               0.0000
     26 H26         -8.6538  -5.5415  15.3044 H              1 RES1               0.0000
     27 H27         -9.0910 -11.9972  17.6163 H              1 RES1               0.0000
     28 H28         -8.8180  -9.6605  21.1723 H              1 RES1               0.0000
     29 H29         -8.7191 -11.8519  20.0489 H              1 RES1               0.0000
@<TRIPOS>BOND
    1    1    2 1     
    2    1    3 1     
    3    1    4 1     
    4    1    5 1     
    5    2    6 ar    
    6    2    7 ar    
    7    3    8 1     
    8    3    9 2     
    9    4   10 1     
   10    4   11 2     
   11    5   12 1     
   12    5   18 1     
   13    5   19 1     
   14    6   13 ar    
   15    6   20 1     
   16    7   14 ar    
   17    7   21 1     
   18    8   15 1     
   19    8   22 1     
   20   10   15 1     
   21   10   23 1     
   22   12   24 1     
   23   12   25 1     
   24   12   26 1     
   25   13   16 ar    
   26   13   27 1     
   27   14   16 ar    
   28   14   28 1     
   29   15   17 2     
   30   16   29 1     
@<TRIPOS>SUBSTRUCTURE
      1 RES1           1
@<TRIPOS>SET
DONOR_HYDROGENS      STATIC     ATOMS    <user>   **** ""
2 22 23
ATOM$RED        STATIC     ATOMS    COLORGROUP SYSTEM
2 22 23
@<TRIPOS>COMMENT
> <Gold.Version>
2022.3.0

> <Gold.Id.Protein>
unknown|3ovv_clean|pdb

> <Gold.Protein.RotatedTorsions>
[  602  597  595  592 ] final  139.89 input   59.96 | X-H torsion
[  622  617  616  613 ] final   81.80 input   59.98 | X-H torsion
[ 2635 2624 2623 2622 ] final  -96.19 input   60.00 | X-H torsion
[ 3186 3179 3177 3174 ] final   69.23 input   59.97 | X-H torsion
[ 5212 5203 5202 5200 ] final   85.35 input   59.98 | X-H torsion

> <Gold.Protein.ActiveResidues>
 GLY50   THR51   GLY52   SER53   PHE54   GLY55   ARG56   VAL57   LYS72   GLU127 
 PHE129  ASP166  LYS168  GLU170  ASN171  THR183  ASP184  THR201  TYR330 

> <Gold.Protein.RotatedAtoms>
   -5.0299   -1.2296   13.7571 H   0  0  0  0  0  0  0  0  0  0  0  0  # atno 602  bound_to 597 
   -7.5326    0.9983   21.4250 H   0  0  0  0  0  0  0  0  0  0  0  0  # atno 622  bound_to 617 
  -14.2956   -0.9684   18.2408 H   0  0  0  0  0  0  0  0  0  0  0  0  # atno 2635 bound_to 2624
  -15.4679   -0.5188   19.3220 H   0  0  0  0  0  0  0  0  0  0  0  0  # atno 2636 bound_to 2624
  -14.1322   -1.3490   19.8451 H   0  0  0  0  0  0  0  0  0  0  0  0  # atno 2637 bound_to 2624
  -16.6427   -0.2638   21.4996 H   0  0  0  0  0  0  0  0  0  0  0  0  # atno 3186 bound_to 3179
   -8.5490   -5.2416   11.5838 H   0  0  0  0  0  0  0  0  0  0  0  0  # atno 5212 bound_to 5203
   -6.1386   -2.3571   14.1409 LP  0  0  0  0  0  0  0  0  0  0  0  0  # atno 5529 bound_to 597 
   -5.2265   -2.5288   12.7973 LP  0  0  0  0  0  0  0  0  0  0  0  0  # atno 5530 bound_to 597 
   -7.1369    1.9920   20.1986 LP  0  0  0  0  0  0  0  0  0  0  0  0  # atno 5533 bound_to 617 
   -7.4466    2.6031   21.6809 LP  0  0  0  0  0  0  0  0  0  0  0  0  # atno 5534 bound_to 617 
  -15.7383    0.8776   20.7730 LP  0  0  0  0  0  0  0  0  0  0  0  0  # atno 5539 bound_to 3179
  -16.3506   -0.3601   19.9014 LP  0  0  0  0  0  0  0  0  0  0  0  0  # atno 5540 bound_to 3179
   -8.9492   -5.5084   10.0293 LP  0  0  0  0  0  0  0  0  0  0  0  0  # atno 5541 bound_to 5203
   -8.8021   -3.9807   10.5868 LP  0  0  0  0  0  0  0  0  0  0  0  0  # atno 5542 bound_to 5203

> <Gold.Score>
     Fitness  S(hb_ext) S(vdw_ext)  S(hb_int)    S(int)      intcor
     43.61       1.25      31.19       0.00      -0.54      -0.79

> <Gold.Goldscore.Fitness>
43.6058

> <Gold.Goldscore.Internal.Vdw>
-0.7056

> <Gold.Goldscore.Internal.Torsion>
-0.6219

> <Gold.Goldscore.External.Vdw>
31.1948

> <Gold.Goldscore.Internal.HBond>
0.0000

> <Gold.Goldscore.External.HBond>
1.2511

> <Gold.Goldscore.Internal.Correction>
-0.7893

> <Gold.Goldscore.Hbonds>
donor molecule, donor type, donor heavy atom, donor atom, acceptor molecule, acceptor atom, score
      L1  H     8    22       P1  2674  0.63

> <Gold.Goldscore.Internal.Vdw.Weighted>
-0.7056

> <Gold.Goldscore.Internal.Torsion.Weighted>
-0.6219

> <Gold.Goldscore.External.Vdw.Weighted>
42.8929

> <Gold.Goldscore.Internal.HBond.Weighted>
0.0000

> <Gold.Goldscore.External.HBond.Weighted>
1.2511

> <Gold.Goldscore.Internal.Correction.Weighted>
-0.7893

> <Gold.Rescore>
     Score     S(PLP)   S(hbond)     S(cho)   S(metal)  DE(clash)   DE(tors)     intcor
     39.48     -37.41       1.00       0.00       0.00       0.00       0.46       ----

> <Gold.PLP.Fitness>
39.4818

> <Gold.PLP.PLP>
-37.4069

> <Gold.PLP.part.hbond>
-2.0000

> <Gold.PLP.part.metal>
0.0000

> <Gold.PLP.part.buried>
-2.9751

> <Gold.PLP.part.nonpolar>
-36.4781

> <Gold.PLP.part.repulsive>
3.0325

> <Gold.PLP.ligand.clash>
0.0000

> <Gold.PLP.ligand.torsion>
0.4625

> <Gold.PLP.Chemscore.Hbond>
1.0000

> <Gold.PLP.Chemscore.CHOScore>
0.0000

> <Gold.PLP.Chemscore.Metal>
0.0000

> <Gold.Chemscore.Hbonds>
donor molecule, donor type, donor heavy atom, donor atom, acceptor molecule, acceptor atom, score
      L1  H     8    22       P1  2674  1.00

> <Gold.PLP.Chemscore.Internal.Correction>
   9.000000E+99

#       Name:                CT1002167954
#       Creating user name   hitesit
#       Creation time:       Sun Apr 16 22:51:05 2023


#       File generated by GOLD software.
#

@<TRIPOS>MOLECULE
CT1002167954|ligand_prepared|mol2|1|dock5
    29    30     1
SMALL
NO_CHARGES


@<TRIPOS>ATOM
      1 C1          -8.3146  -1.9878  22.3764 C.3            1 RES1               0.0000
      2 C2          -7.4548  -3.0204  21.6194 C.ar           1 RES1               0.0000
      3 C3          -8.9171  -1.0716  21.3154 C.2            1 RES1               0.0000
      4 C4          -9.3452  -2.7875  23.1658 C.2            1 RES1               0.0000
      5 C5          -7.5143  -1.1213  23.3765 C.3            1 RES1               0.0000
      6 C6          -6.0881  -3.1190  21.8625 C.ar           1 RES1               0.0000
      7 C7          -8.0135  -3.8815  20.6786 C.ar           1 RES1               0.0000
      8 N8         -10.2431  -1.2190  21.0324 N.am           1 RES1               0.0000
      9 O9          -8.2305  -0.2593  20.7080 O.2            1 RES1               0.0000
     10 N10        -10.6646  -2.6511  22.8216 N.am           1 RES1               0.0000
     11 O11         -9.0251  -3.5472  24.0717 O.2            1 RES1               0.0000
     12 C12         -8.3543  -0.0723  24.0880 C.3            1 RES1               0.0000
     13 C13         -5.3086  -4.0468  21.1917 C.ar           1 RES1               0.0000
     14 C14         -7.2321  -4.8084  20.0087 C.ar           1 RES1               0.0000
     15 C15        -11.1574  -1.9266  21.7707 C.2            1 RES1               0.0000
     16 C16         -5.8800  -4.8923  20.2648 C.ar           1 RES1               0.0000
     17 O17        -12.3525  -1.8964  21.4913 O.2            1 RES1               0.0000
     18 H18         -7.0593  -1.7785  24.1278 H              1 RES1               0.0000
     19 H19         -6.7031  -0.6173  22.8366 H              1 RES1               0.0000
     20 H20         -5.6203  -2.4604  22.5867 H              1 RES1               0.0000
     21 H21         -9.0749  -3.8326  20.4602 H              1 RES1               0.0000
     22 H22        -10.5866  -0.7608  20.1943 H              1 RES1               0.0000
     23 H23        -11.3421  -3.1342  23.4028 H              1 RES1               0.0000
     24 H24         -7.7443   0.5074  24.7776 H              1 RES1               0.0000
     25 H25         -8.8018   0.6140  23.3722 H              1 RES1               0.0000
     26 H26         -9.1559  -0.5403  24.6557 H              1 RES1               0.0000
     27 H27         -4.2447  -4.1078  21.3959 H              1 RES1               0.0000
     28 H28         -7.6860  -5.4714  19.2795 H              1 RES1               0.0000
     29 H29         -5.2692  -5.6192  19.7397 H              1 RES1               0.0000
@<TRIPOS>BOND
    1    1    2 1     
    2    1    3 1     
    3    1    4 1     
    4    1    5 1     
    5    2    6 ar    
    6    2    7 ar    
    7    3    8 1     
    8    3    9 2     
    9    4   10 1     
   10    4   11 2     
   11    5   12 1     
   12    5   18 1     
   13    5   19 1     
   14    6   13 ar    
   15    6   20 1     
   16    7   14 ar    
   17    7   21 1     
   18    8   15 1     
   19    8   22 1     
   20   10   15 1     
   21   10   23 1     
   22   12   24 1     
   23   12   25 1     
   24   12   26 1     
   25   13   16 ar    
   26   13   27 1     
   27   14   16 ar    
   28   14   28 1     
   29   15   17 2     
   30   16   29 1     
@<TRIPOS>SUBSTRUCTURE
      1 RES1           1
@<TRIPOS>SET
DONOR_HYDROGENS      STATIC     ATOMS    <user>   **** ""
2 22 23
ATOM$RED        STATIC     ATOMS    COLORGROUP SYSTEM
2 22 23
@<TRIPOS>COMMENT
> <Gold.Version>
2022.3.0

> <Gold.Id.Protein>
unknown|3ovv_clean|pdb

> <Gold.Protein.RotatedTorsions>
[  602  597  595  592 ] final -115.85 input   59.96 | X-H torsion
[  622  617  616  613 ] final  -46.29 input   59.98 | X-H torsion
[ 2635 2624 2623 2622 ] final  153.25 input   60.00 | X-H torsion
[ 3186 3179 3177 3174 ] final  -69.60 input   59.97 | X-H torsion
[ 5212 5203 5202 5200 ] final   61.12 input   59.98 | X-H torsion

> <Gold.Protein.ActiveResidues>
 GLY50   THR51   GLY52   SER53   PHE54   GLY55   ARG56   VAL57   LYS72   GLU127 
 PHE129  ASP166  LYS168  GLU170  ASN171  THR183  ASP184  THR201  TYR330 

> <Gold.Protein.RotatedAtoms>
   -5.0630   -2.3317   12.7728 H   0  0  0  0  0  0  0  0  0  0  0  0  # atno 602  bound_to 597 
   -7.1314    2.1196   20.2350 H   0  0  0  0  0  0  0  0  0  0  0  0  # atno 622  bound_to 617 
  -14.0284   -1.3858   19.7332 H   0  0  0  0  0  0  0  0  0  0  0  0  # atno 2635 bound_to 2624
  -14.4262   -0.8895   18.2033 H   0  0  0  0  0  0  0  0  0  0  0  0  # atno 2636 bound_to 2624
  -15.4413   -0.5608   19.4717 H   0  0  0  0  0  0  0  0  0  0  0  0  # atno 2637 bound_to 2624
  -15.7161    0.8141   20.4729 H   0  0  0  0  0  0  0  0  0  0  0  0  # atno 3186 bound_to 3179
   -8.6027   -5.5719   11.3779 H   0  0  0  0  0  0  0  0  0  0  0  0  # atno 5212 bound_to 5203
   -5.1874   -1.2263   13.9605 LP  0  0  0  0  0  0  0  0  0  0  0  0  # atno 5529 bound_to 597 
   -6.1444   -2.5495   13.9691 LP  0  0  0  0  0  0  0  0  0  0  0  0  # atno 5530 bound_to 597 
   -7.4784    2.5144   21.7750 LP  0  0  0  0  0  0  0  0  0  0  0  0  # atno 5533 bound_to 617 
   -7.5092    0.9514   21.3030 LP  0  0  0  0  0  0  0  0  0  0  0  0  # atno 5534 bound_to 617 
  -16.5136   -0.5498   20.0821 LP  0  0  0  0  0  0  0  0  0  0  0  0  # atno 5539 bound_to 3179
  -16.5081   -0.0179   21.6260 LP  0  0  0  0  0  0  0  0  0  0  0  0  # atno 5540 bound_to 3179
   -8.9930   -5.1565    9.8537 LP  0  0  0  0  0  0  0  0  0  0  0  0  # atno 5541 bound_to 5203
   -8.7042   -3.9999   10.9698 LP  0  0  0  0  0  0  0  0  0  0  0  0  # atno 5542 bound_to 5203

> <Gold.Score>
     Fitness  S(hb_ext) S(vdw_ext)  S(hb_int)    S(int)      intcor
     42.90       7.31      26.50       0.00      -0.85      -0.79

> <Gold.Goldscore.Fitness>
42.9041

> <Gold.Goldscore.Internal.Vdw>
-1.2636

> <Gold.Goldscore.Internal.Torsion>
-0.3742

> <Gold.Goldscore.External.Vdw>
26.5034

> <Gold.Goldscore.Internal.HBond>
0.0000

> <Gold.Goldscore.External.HBond>
7.3147

> <Gold.Goldscore.Internal.Correction>
-0.7850

> <Gold.Goldscore.Hbonds>
donor molecule, donor type, donor heavy atom, donor atom, acceptor molecule, acceptor atom, score
      P1  H   612   618       L1     9  0.51
      P1  H  2624  2635       L1    17  1.00
      P1  H   932   944       L1    11  0.05

> <Gold.Goldscore.Internal.Vdw.Weighted>
-1.2636

> <Gold.Goldscore.Internal.Torsion.Weighted>
-0.3742

> <Gold.Goldscore.External.Vdw.Weighted>
36.4422

> <Gold.Goldscore.Internal.HBond.Weighted>
0.0000

> <Gold.Goldscore.External.HBond.Weighted>
7.3147

> <Gold.Goldscore.Internal.Correction.Weighted>
-0.7850

> <Gold.Rescore>
     Score     S(PLP)   S(hbond)     S(cho)   S(metal)  DE(clash)   DE(tors)     intcor
     45.20     -39.64       1.86       0.00       0.00       0.00       0.02       ----

> <Gold.PLP.Fitness>
45.1982

> <Gold.PLP.PLP>
-39.6422

> <Gold.PLP.part.hbond>
-3.1578

> <Gold.PLP.part.metal>
0.0000

> <Gold.PLP.part.buried>
-4.8310

> <Gold.PLP.part.nonpolar>
-33.9862

> <Gold.PLP.part.repulsive>
2.1122

> <Gold.PLP.ligand.clash>
0.0000

> <Gold.PLP.ligand.torsion>
0.0180

> <Gold.PLP.Chemscore.Hbond>
1.8640

> <Gold.PLP.Chemscore.CHOScore>
0.0000

> <Gold.PLP.Chemscore.Metal>
0.0000

> <Gold.Chemscore.Hbonds>
donor molecule, donor type, donor heavy atom, donor atom, acceptor molecule, acceptor atom, score
      P1  H   612   618       L1     9  1.00
      P1  H  2624  2635       L1    17  0.05

> <Gold.PLP.Chemscore.Internal.Correction>
   9.000000E+99

#       Name:                CT1002167954
#       Creating user name   hitesit
#       Creation time:       Sun Apr 16 22:51:03 2023


#       File generated by GOLD software.
#

@<TRIPOS>MOLECULE
CT1002167954|ligand_prepared|mol2|1|dock3
    29    30     1
SMALL
NO_CHARGES


@<TRIPOS>ATOM
      1 C1          -9.7822  -6.9475  17.6346 C.3            1 RES1               0.0000
      2 C2          -9.4796  -8.2067  18.4724 C.ar           1 RES1               0.0000
      3 C3         -11.2891  -6.7252  17.7241 C.2            1 RES1               0.0000
      4 C4          -8.9502  -5.8223  18.2400 C.2            1 RES1               0.0000
      5 C5          -9.3930  -7.0806  16.1438 C.3            1 RES1               0.0000
      6 C6          -9.3630  -9.4522  17.8628 C.ar           1 RES1               0.0000
      7 C7          -9.3122  -8.1381  19.8529 C.ar           1 RES1               0.0000
      8 N8         -11.7309  -5.6977  18.5044 N.am           1 RES1               0.0000
      9 O9         -12.0793  -7.4647  17.1505 O.2            1 RES1               0.0000
     10 N10         -9.6141  -4.7809  18.8336 N.am           1 RES1               0.0000
     11 O11         -7.7256  -5.8363  18.2229 O.2            1 RES1               0.0000
     12 C12         -9.4450  -5.7685  15.3771 C.3            1 RES1               0.0000
     13 C13         -9.0861 -10.5878  18.6058 C.ar           1 RES1               0.0000
     14 C14         -9.0356  -9.2750  20.5942 C.ar           1 RES1               0.0000
     15 C15        -10.9660  -4.6826  19.0204 C.2            1 RES1               0.0000
     16 C16         -8.9218 -10.4999  19.9718 C.ar           1 RES1               0.0000
     17 O17        -11.4847  -3.7405  19.6124 O.2            1 RES1               0.0000
     18 H18         -8.3762  -7.4872  16.0793 H              1 RES1               0.0000
     19 H19        -10.0716  -7.7968  15.6643 H              1 RES1               0.0000
     20 H20         -9.4915  -9.5413  16.7892 H              1 RES1               0.0000
     21 H21         -9.3984  -7.1853  20.3640 H              1 RES1               0.0000
     22 H22        -12.7216  -5.6827  18.7248 H              1 RES1               0.0000
     23 H23         -9.0480  -4.0071  19.1670 H              1 RES1               0.0000
     24 H24         -9.1632  -5.9181  14.3370 H              1 RES1               0.0000
     25 H25        -10.4484  -5.3483  15.3992 H              1 RES1               0.0000
     26 H26         -8.7631  -5.0405  15.8117 H              1 RES1               0.0000
     27 H27         -8.9989 -11.5497  18.1114 H              1 RES1               0.0000
     28 H28         -8.9077  -9.2013  21.6691 H              1 RES1               0.0000
     29 H29         -8.7046 -11.3896  20.5537 H              1 RES1               0.0000
@<TRIPOS>BOND
    1    1    2 1     
    2    1    3 1     
    3    1    4 1     
    4    1    5 1     
    5    2    6 ar    
    6    2    7 ar    
    7    3    8 1     
    8    3    9 2     
    9    4   10 1     
   10    4   11 2     
   11    5   12 1     
   12    5   18 1     
   13    5   19 1     
   14    6   13 ar    
   15    6   20 1     
   16    7   14 ar    
   17    7   21 1     
   18    8   15 1     
   19    8   22 1     
   20   10   15 1     
   21   10   23 1     
   22   12   24 1     
   23   12   25 1     
   24   12   26 1     
   25   13   16 ar    
   26   13   27 1     
   27   14   16 ar    
   28   14   28 1     
   29   15   17 2     
   30   16   29 1     
@<TRIPOS>SUBSTRUCTURE
      1 RES1           1
@<TRIPOS>SET
DONOR_HYDROGENS      STATIC     ATOMS    <user>   **** ""
2 22 23
ATOM$RED        STATIC     ATOMS    COLORGROUP SYSTEM
2 22 23
@<TRIPOS>COMMENT
> <Gold.Version>
2022.3.0

> <Gold.Id.Protein>
unknown|3ovv_clean|pdb

> <Gold.Protein.RotatedTorsions>
[  602  597  595  592 ] final  170.95 input   59.96 | X-H torsion
[  622  617  616  613 ] final   23.66 input   59.98 | X-H torsion
[ 2635 2624 2623 2622 ] final   45.68 input   60.00 | X-H torsion
[ 3186 3179 3177 3174 ] final  110.12 input   59.97 | X-H torsion
[ 5212 5203 5202 5200 ] final   98.31 input   59.98 | X-H torsion

> <Gold.Protein.ActiveResidues>
 GLY50   THR51   GLY52   SER53   PHE54   GLY55   ARG56   VAL57   LYS72   GLU127 
 PHE129  ASP166  LYS168  GLU170  ASN171  THR183  ASP184  THR201  TYR330 

> <Gold.Protein.RotatedAtoms>
   -4.8222   -1.3962   13.3323 H   0  0  0  0  0  0  0  0  0  0  0  0  # atno 602  bound_to 597 
   -7.3054    1.1087   20.5510 H   0  0  0  0  0  0  0  0  0  0  0  0  # atno 622  bound_to 617 
  -15.3726   -0.6316   19.6537 H   0  0  0  0  0  0  0  0  0  0  0  0  # atno 2635 bound_to 2624
  -13.9161   -1.4162   19.5618 H   0  0  0  0  0  0  0  0  0  0  0  0  # atno 2636 bound_to 2624
  -14.6073   -0.7882   18.1925 H   0  0  0  0  0  0  0  0  0  0  0  0  # atno 2637 bound_to 2624
  -16.7758   -0.6434   20.9838 H   0  0  0  0  0  0  0  0  0  0  0  0  # atno 3186 bound_to 3179
   -8.5356   -5.0367   11.6339 H   0  0  0  0  0  0  0  0  0  0  0  0  # atno 5212 bound_to 5203
   -5.9829   -1.9220   14.3443 LP  0  0  0  0  0  0  0  0  0  0  0  0  # atno 5529 bound_to 597 
   -5.5914   -2.7960   13.0217 LP  0  0  0  0  0  0  0  0  0  0  0  0  # atno 5530 bound_to 597 
   -7.2046    2.7206   20.7498 LP  0  0  0  0  0  0  0  0  0  0  0  0  # atno 5533 bound_to 617 
   -7.6077    1.7633   22.0099 LP  0  0  0  0  0  0  0  0  0  0  0  0  # atno 5534 bound_to 617 
  -15.9724    0.7190   21.3677 LP  0  0  0  0  0  0  0  0  0  0  0  0  # atno 5539 bound_to 3179
  -15.9825    0.1808   19.8260 LP  0  0  0  0  0  0  0  0  0  0  0  0  # atno 5540 bound_to 3179
   -8.9118   -5.6568   10.1772 LP  0  0  0  0  0  0  0  0  0  0  0  0  # atno 5541 bound_to 5203
   -8.8530   -4.0386   10.3885 LP  0  0  0  0  0  0  0  0  0  0  0  0  # atno 5542 bound_to 5203

> <Gold.Score>
     Fitness  S(hb_ext) S(vdw_ext)  S(hb_int)    S(int)      intcor
     41.08       1.11      29.46       0.00      -0.53      -0.79

> <Gold.Goldscore.Fitness>
41.0816

> <Gold.Goldscore.Internal.Vdw>
-0.7708

> <Gold.Goldscore.Internal.Torsion>
-0.5466

> <Gold.Goldscore.External.Vdw>
29.4601

> <Gold.Goldscore.Internal.HBond>
0.0000

> <Gold.Goldscore.External.HBond>
1.1063

> <Gold.Goldscore.Internal.Correction>
-0.7850

> <Gold.Goldscore.Hbonds>
donor molecule, donor type, donor heavy atom, donor atom, acceptor molecule, acceptor atom, score
      L1  H     8    22       P1  2674  0.55

> <Gold.Goldscore.Internal.Vdw.Weighted>
-0.7708

> <Gold.Goldscore.Internal.Torsion.Weighted>
-0.5466

> <Gold.Goldscore.External.Vdw.Weighted>
40.5077

> <Gold.Goldscore.Internal.HBond.Weighted>
0.0000

> <Gold.Goldscore.External.HBond.Weighted>
1.1063

> <Gold.Goldscore.Internal.Correction.Weighted>
-0.7850

> <Gold.Rescore>
     Score     S(PLP)   S(hbond)     S(cho)   S(metal)  DE(clash)   DE(tors)     intcor
     38.84     -37.48       1.00       0.00       0.00       0.00       0.82       ----

> <Gold.PLP.Fitness>
38.8438

> <Gold.PLP.PLP>
-37.4830

> <Gold.PLP.part.hbond>
-1.4767

> <Gold.PLP.part.metal>
0.0000

> <Gold.PLP.part.buried>
-2.9931

> <Gold.PLP.part.nonpolar>
-36.0936

> <Gold.PLP.part.repulsive>
2.6538

> <Gold.PLP.ligand.clash>
0.0000

> <Gold.PLP.ligand.torsion>
0.8196

> <Gold.PLP.Chemscore.Hbond>
1.0000

> <Gold.PLP.Chemscore.CHOScore>
0.0000

> <Gold.PLP.Chemscore.Metal>
0.0000

> <Gold.Chemscore.Hbonds>
donor molecule, donor type, donor heavy atom, donor atom, acceptor molecule, acceptor atom, score
      L1  H     8    22       P1  2674  0.62

> <Gold.PLP.Chemscore.Internal.Correction>
   9.000000E+99

#       Name:                CT1002167954
#       Creating user name   hitesit
#       Creation time:       Sun Apr 16 22:51:02 2023


#       File generated by GOLD software.
#

@<TRIPOS>MOLECULE
CT1002167954|ligand_prepared|mol2|1|dock2
    29    30     1
SMALL
NO_CHARGES


@<TRIPOS>ATOM
      1 C1          -9.3832  -7.3036  18.0421 C.3            1 RES1               0.0000
      2 C2          -8.1774  -6.5115  18.5874 C.ar           1 RES1               0.0000
      3 C3          -9.1005  -7.5496  16.5629 C.2            1 RES1               0.0000
      4 C4          -9.4716  -8.5754  18.8784 C.2            1 RES1               0.0000
      5 C5         -10.7306  -6.5551  18.1668 C.3            1 RES1               0.0000
      6 C6          -6.9280  -6.6181  17.9840 C.ar           1 RES1               0.0000
      7 C7          -8.2995  -5.6695  19.6896 C.ar           1 RES1               0.0000
      8 N8          -8.7439  -8.8118  16.1891 N.am           1 RES1               0.0000
      9 O9          -9.1513  -6.6411  15.7430 O.2            1 RES1               0.0000
     10 N10         -9.2434  -9.7728  18.2523 N.am           1 RES1               0.0000
     11 O11         -9.7205  -8.5501  20.0774 O.2            1 RES1               0.0000
     12 C12        -11.8771  -7.2294  17.4298 C.3            1 RES1               0.0000
     13 C13         -5.8405  -5.9066  18.4631 C.ar           1 RES1               0.0000
     14 C14         -7.2107  -4.9590  20.1672 C.ar           1 RES1               0.0000
     15 C15         -8.8533  -9.9463  16.9523 C.2            1 RES1               0.0000
     16 C16         -5.9812  -5.0763  19.5546 C.ar           1 RES1               0.0000
     17 O17         -8.6140 -11.0522  16.4761 O.2            1 RES1               0.0000
     18 H18        -10.9926  -6.4743  19.2290 H              1 RES1               0.0000
     19 H19        -10.6075  -5.5384  17.7736 H              1 RES1               0.0000
     20 H20         -6.7975  -7.2685  17.1255 H              1 RES1               0.0000
     21 H21         -9.2569  -5.5624  20.1881 H              1 RES1               0.0000
     22 H22         -8.3604  -8.9223  15.2559 H              1 RES1               0.0000
     23 H23         -9.3767 -10.6125  18.8067 H              1 RES1               0.0000
     24 H24        -12.7986  -6.6635  17.5498 H              1 RES1               0.0000
     25 H25        -11.6612  -7.3037  16.3660 H              1 RES1               0.0000
     26 H26        -12.0440  -8.2340  17.8128 H              1 RES1               0.0000
     27 H27         -4.8747  -6.0035  17.9782 H              1 RES1               0.0000
     28 H28         -7.3258  -4.3072  21.0270 H              1 RES1               0.0000
     29 H29         -5.1293  -4.5187  19.9295 H              1 RES1               0.0000
@<TRIPOS>BOND
    1    1    2 1     
    2    1    3 1     
    3    1    4 1     
    4    1    5 1     
    5    2    6 ar    
    6    2    7 ar    
    7    3    8 1     
    8    3    9 2     
    9    4   10 1     
   10    4   11 2     
   11    5   12 1     
   12    5   18 1     
   13    5   19 1     
   14    6   13 ar    
   15    6   20 1     
   16    7   14 ar    
   17    7   21 1     
   18    8   15 1     
   19    8   22 1     
   20   10   15 1     
   21   10   23 1     
   22   12   24 1     
   23   12   25 1     
   24   12   26 1     
   25   13   16 ar    
   26   13   27 1     
   27   14   16 ar    
   28   14   28 1     
   29   15   17 2     
   30   16   29 1     
@<TRIPOS>SUBSTRUCTURE
      1 RES1           1
@<TRIPOS>SET
DONOR_HYDROGENS      STATIC     ATOMS    <user>   **** ""
2 22 23
ATOM$RED        STATIC     ATOMS    COLORGROUP SYSTEM
2 22 23
@<TRIPOS>COMMENT
> <Gold.Version>
2022.3.0

> <Gold.Id.Protein>
unknown|3ovv_clean|pdb

> <Gold.Protein.RotatedTorsions>
[  602  597  595  592 ] final  -78.99 input   59.96 | X-H torsion
[  622  617  616  613 ] final  104.89 input   59.98 | X-H torsion
[ 2635 2624 2623 2622 ] final   84.64 input   60.00 | X-H torsion
[ 3186 3179 3177 3174 ] final    6.90 input   59.97 | X-H torsion
[ 5212 5203 5202 5200 ] final   72.83 input   59.98 | X-H torsion

> <Gold.Protein.ActiveResidues>
 GLY50   THR51   GLY52   SER53   PHE54   GLY55   ARG56   VAL57   LYS72   GLU127 
 PHE129  ASP166  LYS168  GLU170  ASN171  THR183  ASP184  THR201  TYR330 

> <Gold.Protein.RotatedAtoms>
   -5.4720   -2.7277   12.9343 H   0  0  0  0  0  0  0  0  0  0  0  0  # atno 602  bound_to 597 
   -7.5893    1.2049   21.7325 H   0  0  0  0  0  0  0  0  0  0  0  0  # atno 622  bound_to 617 
  -14.9572   -0.9293   20.0354 H   0  0  0  0  0  0  0  0  0  0  0  0  # atno 2635 bound_to 2624
  -13.7972   -1.3685   18.9368 H   0  0  0  0  0  0  0  0  0  0  0  0  # atno 2636 bound_to 2624
  -15.1415   -0.5382   18.4359 H   0  0  0  0  0  0  0  0  0  0  0  0  # atno 2637 bound_to 2624
  -16.1192    0.5515   21.5280 H   0  0  0  0  0  0  0  0  0  0  0  0  # atno 3186 bound_to 3179
   -8.5724   -5.4236   11.4944 H   0  0  0  0  0  0  0  0  0  0  0  0  # atno 5212 bound_to 5203
   -4.8678   -1.3131   13.4649 LP  0  0  0  0  0  0  0  0  0  0  0  0  # atno 5529 bound_to 597 
   -6.0520   -2.0637   14.3020 LP  0  0  0  0  0  0  0  0  0  0  0  0  # atno 5530 bound_to 597 
   -7.1761    1.6169   20.2134 LP  0  0  0  0  0  0  0  0  0  0  0  0  # atno 5533 bound_to 617 
   -7.3504    2.7700   21.3565 LP  0  0  0  0  0  0  0  0  0  0  0  0  # atno 5534 bound_to 617 
  -15.8594    0.4048   19.9280 LP  0  0  0  0  0  0  0  0  0  0  0  0  # atno 5539 bound_to 3179
  -16.7565   -0.7080   20.7178 LP  0  0  0  0  0  0  0  0  0  0  0  0  # atno 5540 bound_to 3179
   -8.9765   -5.3361    9.9205 LP  0  0  0  0  0  0  0  0  0  0  0  0  # atno 5541 bound_to 5203
   -8.7512   -3.9697   10.7857 LP  0  0  0  0  0  0  0  0  0  0  0  0  # atno 5542 bound_to 5203

> <Gold.Score>
     Fitness  S(hb_ext) S(vdw_ext)  S(hb_int)    S(int)      intcor
     40.23       0.16      29.74       0.00      -0.83      -0.79

> <Gold.Goldscore.Fitness>
40.2279

> <Gold.Goldscore.Internal.Vdw>
-1.1060

> <Gold.Goldscore.Internal.Torsion>
-0.5123

> <Gold.Goldscore.External.Vdw>
29.7435

> <Gold.Goldscore.Internal.HBond>
0.0000

> <Gold.Goldscore.External.HBond>
0.1596

> <Gold.Goldscore.Internal.Correction>
-0.7893

> <Gold.Goldscore.Hbonds>
donor molecule, donor type, donor heavy atom, donor atom, acceptor molecule, acceptor atom, score
      P1  H   932   945       L1    11  0.03

> <Gold.Goldscore.Internal.Vdw.Weighted>
-1.1060

> <Gold.Goldscore.Internal.Torsion.Weighted>
-0.5123

> <Gold.Goldscore.External.Vdw.Weighted>
40.8973

> <Gold.Goldscore.Internal.HBond.Weighted>
0.0000

> <Gold.Goldscore.External.HBond.Weighted>
0.1596

> <Gold.Goldscore.Internal.Correction.Weighted>
-0.7893

> <Gold.Rescore>
     Score     S(PLP)   S(hbond)     S(cho)   S(metal)  DE(clash)   DE(tors)     intcor
     39.33     -41.53       0.00       0.00       0.00       0.00       1.10       ----

> <Gold.PLP.Fitness>
39.3289

> <Gold.PLP.PLP>
-41.5303

> <Gold.PLP.part.hbond>
0.0000

> <Gold.PLP.part.metal>
0.0000

> <Gold.PLP.part.buried>
-5.3530

> <Gold.PLP.part.nonpolar>
-37.5103

> <Gold.PLP.part.repulsive>
0.2507

> <Gold.PLP.ligand.clash>
0.0000

> <Gold.PLP.ligand.torsion>
1.1007

> <Gold.PLP.Chemscore.Hbond>
0.0000

> <Gold.PLP.Chemscore.CHOScore>
0.0000

> <Gold.PLP.Chemscore.Metal>
0.0000

> <Gold.PLP.Chemscore.Internal.Correction>
   9.000000E+99

#       Name:                CT1002167954
#       Creating user name   hitesit
#       Creation time:       Sun Apr 16 22:51:07 2023


#       File generated by GOLD software.
#

@<TRIPOS>MOLECULE
CT1002167954|ligand_prepared|mol2|1|dock7
    29    30     1
SMALL
NO_CHARGES


@<TRIPOS>ATOM
      1 C1          -9.5298  -6.8721  17.1874 C.3            1 RES1               0.0000
      2 C2          -8.2843  -6.3039  17.8978 C.ar           1 RES1               0.0000
      3 C3         -10.5903  -7.0615  18.2681 C.2            1 RES1               0.0000
      4 C4          -9.9091  -5.8573  16.1146 C.2            1 RES1               0.0000
      5 C5          -9.2871  -8.2327  16.4935 C.3            1 RES1               0.0000
      6 C6          -7.0376  -6.3411  17.2803 C.ar           1 RES1               0.0000
      7 C7          -8.3665  -5.7381  19.1673 C.ar           1 RES1               0.0000
      8 N8         -11.6295  -6.1789  18.2951 N.am           1 RES1               0.0000
      9 O9         -10.4953  -7.9479  19.1081 O.2            1 RES1               0.0000
     10 N10        -11.1020  -5.1964  16.2490 N.am           1 RES1               0.0000
     11 O11         -9.1781  -5.6118  15.1629 O.2            1 RES1               0.0000
     12 C12        -10.5633  -8.9345  16.0567 C.3            1 RES1               0.0000
     13 C13         -5.9144  -5.8285  17.9079 C.ar           1 RES1               0.0000
     14 C14         -7.2419  -5.2262  19.7932 C.ar           1 RES1               0.0000
     15 C15        -11.9651  -5.2888  17.3067 C.2            1 RES1               0.0000
     16 C16         -6.0157  -5.2704  19.1644 C.ar           1 RES1               0.0000
     17 O17        -12.9926  -4.6212  17.3816 O.2            1 RES1               0.0000
     18 H18         -8.6534  -8.0717  15.6127 H              1 RES1               0.0000
     19 H19         -8.7419  -8.8886  17.1834 H              1 RES1               0.0000
     20 H20         -6.9380  -6.7787  16.2926 H              1 RES1               0.0000
     21 H21         -9.3205  -5.6935  19.6815 H              1 RES1               0.0000
     22 H22        -12.2109  -6.1807  19.1271 H              1 RES1               0.0000
     23 H23        -11.3716  -4.5784  15.4902 H              1 RES1               0.0000
     24 H24        -10.3363  -9.8837  15.5759 H              1 RES1               0.0000
     25 H25        -11.2064  -9.1329  16.9117 H              1 RES1               0.0000
     26 H26        -11.1185  -8.3209  15.3502 H              1 RES1               0.0000
     27 H27         -4.9515  -5.8670  17.4093 H              1 RES1               0.0000
     28 H28         -7.3262  -4.7885  20.7824 H              1 RES1               0.0000
     29 H29         -5.1357  -4.8686  19.6557 H              1 RES1               0.0000
@<TRIPOS>BOND
    1    1    2 1     
    2    1    3 1     
    3    1    4 1     
    4    1    5 1     
    5    2    6 ar    
    6    2    7 ar    
    7    3    8 1     
    8    3    9 2     
    9    4   10 1     
   10    4   11 2     
   11    5   12 1     
   12    5   18 1     
   13    5   19 1     
   14    6   13 ar    
   15    6   20 1     
   16    7   14 ar    
   17    7   21 1     
   18    8   15 1     
   19    8   22 1     
   20   10   15 1     
   21   10   23 1     
   22   12   24 1     
   23   12   25 1     
   24   12   26 1     
   25   13   16 ar    
   26   13   27 1     
   27   14   16 ar    
   28   14   28 1     
   29   15   17 2     
   30   16   29 1     
@<TRIPOS>SUBSTRUCTURE
      1 RES1           1
@<TRIPOS>SET
DONOR_HYDROGENS      STATIC     ATOMS    <user>   **** ""
2 22 23
ATOM$RED        STATIC     ATOMS    COLORGROUP SYSTEM
2 22 23
@<TRIPOS>COMMENT
> <Gold.Version>
2022.3.0

> <Gold.Id.Protein>
unknown|3ovv_clean|pdb

> <Gold.Protein.RotatedTorsions>
[  602  597  595  592 ] final  102.00 input   59.96 | X-H torsion
[  622  617  616  613 ] final   -1.47 input   59.98 | X-H torsion
[ 2635 2624 2623 2622 ] final -140.15 input   60.00 | X-H torsion
[ 3186 3179 3177 3174 ] final  104.16 input   59.97 | X-H torsion
[ 5212 5203 5202 5200 ] final  171.89 input   59.98 | X-H torsion

> <Gold.Protein.ActiveResidues>
 GLY50   THR51   GLY52   SER53   PHE54   GLY55   ARG56   VAL57   LYS72   GLU127 
 PHE129  ASP166  LYS168  GLU170  ASN171  THR183  ASP184  THR201  TYR330 

> <Gold.Protein.RotatedAtoms>
   -5.4423   -1.3394   14.1899 H   0  0  0  0  0  0  0  0  0  0  0  0  # atno 602  bound_to 597 
   -7.2135    1.4131   20.2965 H   0  0  0  0  0  0  0  0  0  0  0  0  # atno 622  bound_to 617 
  -13.8547   -1.2945   18.7014 H   0  0  0  0  0  0  0  0  0  0  0  0  # atno 2635 bound_to 2624
  -15.2989   -0.4858   18.6266 H   0  0  0  0  0  0  0  0  0  0  0  0  # atno 2636 bound_to 2624
  -14.7421   -1.0558   20.0800 H   0  0  0  0  0  0  0  0  0  0  0  0  # atno 2637 bound_to 2624
  -16.7723   -0.6075   21.0741 H   0  0  0  0  0  0  0  0  0  0  0  0  # atno 3186 bound_to 3179
   -8.6678   -4.0568   11.1054 H   0  0  0  0  0  0  0  0  0  0  0  0  # atno 5212 bound_to 5203
   -6.0668   -2.7525   13.6791 LP  0  0  0  0  0  0  0  0  0  0  0  0  # atno 5529 bound_to 597 
   -4.8830   -2.0227   12.8231 LP  0  0  0  0  0  0  0  0  0  0  0  0  # atno 5530 bound_to 597 
   -7.2942    2.8011   21.1420 LP  0  0  0  0  0  0  0  0  0  0  0  0  # atno 5533 bound_to 617 
   -7.6107    1.3762   21.8741 LP  0  0  0  0  0  0  0  0  0  0  0  0  # atno 5534 bound_to 617 
  -15.9262    0.7652   21.2948 LP  0  0  0  0  0  0  0  0  0  0  0  0  # atno 5539 bound_to 3179
  -16.0322    0.0983   19.8080 LP  0  0  0  0  0  0  0  0  0  0  0  0  # atno 5540 bound_to 3179
   -8.6323   -5.6752   11.2711 LP  0  0  0  0  0  0  0  0  0  0  0  0  # atno 5541 bound_to 5203
   -8.9994   -5.0073    9.8269 LP  0  0  0  0  0  0  0  0  0  0  0  0  # atno 5542 bound_to 5203

> <Gold.Score>
     Fitness  S(hb_ext) S(vdw_ext)  S(hb_int)    S(int)      intcor
     38.81       0.05      29.08       0.00      -1.23      -0.79

> <Gold.Goldscore.Fitness>
38.8079

> <Gold.Goldscore.Internal.Vdw>
-1.3934

> <Gold.Goldscore.Internal.Torsion>
-0.6171

> <Gold.Goldscore.External.Vdw>
29.0817

> <Gold.Goldscore.Internal.HBond>
0.0000

> <Gold.Goldscore.External.HBond>
0.0460

> <Gold.Goldscore.Internal.Correction>
-0.7850

> <Gold.Goldscore.Hbonds>
donor molecule, donor type, donor heavy atom, donor atom, acceptor molecule, acceptor atom, score
      L1  H     8    22       P1  2674  0.02

> <Gold.Goldscore.Internal.Vdw.Weighted>
-1.3934

> <Gold.Goldscore.Internal.Torsion.Weighted>
-0.6171

> <Gold.Goldscore.External.Vdw.Weighted>
39.9873

> <Gold.Goldscore.Internal.HBond.Weighted>
0.0000

> <Gold.Goldscore.External.HBond.Weighted>
0.0460

> <Gold.Goldscore.Internal.Correction.Weighted>
-0.7850

> <Gold.Rescore>
     Score     S(PLP)   S(hbond)     S(cho)   S(metal)  DE(clash)   DE(tors)     intcor
     33.81     -33.85       0.72       0.00       0.00       1.35       0.42       ----

> <Gold.PLP.Fitness>
33.8125

> <Gold.PLP.PLP>
-33.8489

> <Gold.PLP.part.hbond>
-1.9007

> <Gold.PLP.part.metal>
0.0000

> <Gold.PLP.part.buried>
-1.5694

> <Gold.PLP.part.nonpolar>
-32.6873

> <Gold.PLP.part.repulsive>
1.5369

> <Gold.PLP.ligand.clash>
1.3524

> <Gold.PLP.ligand.torsion>
0.4220

> <Gold.PLP.Chemscore.Hbond>
0.7200

> <Gold.PLP.Chemscore.CHOScore>
0.0000

> <Gold.PLP.Chemscore.Metal>
0.0000

> <Gold.Chemscore.Hbonds>
donor molecule, donor type, donor heavy atom, donor atom, acceptor molecule, acceptor atom, score
      L1  H     8    22       P1  2674  0.42

> <Gold.PLP.Chemscore.Internal.Correction>
   9.000000E+99

#       Name:                CT1002167954
#       Creating user name   hitesit
#       Creation time:       Sun Apr 16 22:51:09 2023


#       File generated by GOLD software.
#

@<TRIPOS>MOLECULE
CT1002167954|ligand_prepared|mol2|1|dock9
    29    30     1
SMALL
NO_CHARGES


@<TRIPOS>ATOM
      1 C1          -9.3449  -6.9955  17.2333 C.3            1 RES1               0.0000
      2 C2          -8.0974  -6.4138  17.9291 C.ar           1 RES1               0.0000
      3 C3         -10.4037  -7.1603  18.3196 C.2            1 RES1               0.0000
      4 C4          -9.7248  -6.0035  16.1396 C.2            1 RES1               0.0000
      5 C5          -9.1051  -8.3710  16.5684 C.3            1 RES1               0.0000
      6 C6          -8.1743  -5.9267  19.2305 C.ar           1 RES1               0.0000
      7 C7          -6.8644  -6.3601  17.2846 C.ar           1 RES1               0.0000
      8 N8         -11.4418  -6.2759  18.3294 N.am           1 RES1               0.0000
      9 O9         -10.3084  -8.0285  19.1783 O.2            1 RES1               0.0000
     10 N10        -10.9166  -5.3384  16.2618 N.am           1 RES1               0.0000
     11 O11         -8.9952  -5.7795  15.1816 O.2            1 RES1               0.0000
     12 C12        -10.3718  -9.0260  16.0406 C.3            1 RES1               0.0000
     13 C13         -7.0584  -5.4074  19.8657 C.ar           1 RES1               0.0000
     14 C14         -5.7497  -5.8402  17.9216 C.ar           1 RES1               0.0000
     15 C15        -11.7780  -5.4069  17.3227 C.2            1 RES1               0.0000
     16 C16         -5.8454  -5.3642  19.2120 C.ar           1 RES1               0.0000
     17 O17        -12.8046  -4.7365  17.3850 O.2            1 RES1               0.0000
     18 H18         -8.4008  -8.2433  15.7371 H              1 RES1               0.0000
     19 H19         -8.6402  -9.0414  17.3018 H              1 RES1               0.0000
     20 H20         -9.1210  -5.9501  19.7599 H              1 RES1               0.0000
     21 H21         -6.7658  -6.7279  16.2689 H              1 RES1               0.0000
     22 H22        -12.0217  -6.2591  19.1623 H              1 RES1               0.0000
     23 H23        -11.1868  -4.7365  15.4904 H              1 RES1               0.0000
     24 H24        -10.1473  -9.9879  15.5843 H              1 RES1               0.0000
     25 H25        -11.0850  -9.1910  16.8455 H              1 RES1               0.0000
     26 H26        -10.8470  -8.3976  15.2901 H              1 RES1               0.0000
     27 H27         -7.1394  -5.0328  20.8807 H              1 RES1               0.0000
     28 H28         -4.7972  -5.8076  17.4031 H              1 RES1               0.0000
     29 H29         -4.9713  -4.9577  19.7099 H              1 RES1               0.0000
@<TRIPOS>BOND
    1    1    2 1     
    2    1    3 1     
    3    1    4 1     
    4    1    5 1     
    5    2    6 ar    
    6    2    7 ar    
    7    3    8 1     
    8    3    9 2     
    9    4   10 1     
   10    4   11 2     
   11    5   12 1     
   12    5   18 1     
   13    5   19 1     
   14    6   13 ar    
   15    6   20 1     
   16    7   14 ar    
   17    7   21 1     
   18    8   15 1     
   19    8   22 1     
   20   10   15 1     
   21   10   23 1     
   22   12   24 1     
   23   12   25 1     
   24   12   26 1     
   25   13   16 ar    
   26   13   27 1     
   27   14   16 ar    
   28   14   28 1     
   29   15   17 2     
   30   16   29 1     
@<TRIPOS>SUBSTRUCTURE
      1 RES1           1
@<TRIPOS>SET
DONOR_HYDROGENS      STATIC     ATOMS    <user>   **** ""
2 22 23
ATOM$RED        STATIC     ATOMS    COLORGROUP SYSTEM
2 22 23
@<TRIPOS>COMMENT
> <Gold.Version>
2022.3.0

> <Gold.Id.Protein>
unknown|3ovv_clean|pdb

> <Gold.Protein.RotatedTorsions>
[  602  597  595  592 ] final   -9.54 input   59.96 | X-H torsion
[  622  617  616  613 ] final   37.18 input   59.98 | X-H torsion
[ 2635 2624 2623 2622 ] final -168.37 input   60.00 | X-H torsion
[ 3186 3179 3177 3174 ] final  138.16 input   59.97 | X-H torsion
[ 5212 5203 5202 5200 ] final   94.60 input   59.98 | X-H torsion

> <Gold.Protein.ActiveResidues>
 GLY50   THR51   GLY52   SER53   PHE54   GLY55   ARG56   VAL57   LYS72   GLU127 
 PHE129  ASP166  LYS168  GLU170  ASN171  THR183  ASP184  THR201  TYR330 

> <Gold.Protein.RotatedAtoms>
   -6.1018   -2.6825   13.7938 H   0  0  0  0  0  0  0  0  0  0  0  0  # atno 602  bound_to 597 
   -7.3612    1.0013   20.7351 H   0  0  0  0  0  0  0  0  0  0  0  0  # atno 622  bound_to 617 
  -13.7951   -1.4085   19.1496 H   0  0  0  0  0  0  0  0  0  0  0  0  # atno 2635 bound_to 2624
  -14.9773   -0.6057   18.3109 H   0  0  0  0  0  0  0  0  0  0  0  0  # atno 2636 bound_to 2624
  -15.1234   -0.8220   19.9477 H   0  0  0  0  0  0  0  0  0  0  0  0  # atno 2637 bound_to 2624
  -16.7163   -0.7031   20.5378 H   0  0  0  0  0  0  0  0  0  0  0  0  # atno 3186 bound_to 3179
   -8.5383   -5.0965   11.6242 H   0  0  0  0  0  0  0  0  0  0  0  0  # atno 5212 bound_to 5203
   -4.9422   -2.1434   12.7875 LP  0  0  0  0  0  0  0  0  0  0  0  0  # atno 5529 bound_to 597 
   -5.3432   -1.2789   14.1136 LP  0  0  0  0  0  0  0  0  0  0  0  0  # atno 5530 bound_to 597 
   -7.1688    2.6079   20.5622 LP  0  0  0  0  0  0  0  0  0  0  0  0  # atno 5533 bound_to 617 
   -7.5873    1.9842   22.0122 LP  0  0  0  0  0  0  0  0  0  0  0  0  # atno 5534 bound_to 617 
  -16.2201    0.4190   21.6073 LP  0  0  0  0  0  0  0  0  0  0  0  0  # atno 5539 bound_to 3179
  -15.7947    0.5408   20.0354 LP  0  0  0  0  0  0  0  0  0  0  0  0  # atno 5540 bound_to 3179
   -8.9234   -5.6180   10.1316 LP  0  0  0  0  0  0  0  0  0  0  0  0  # atno 5541 bound_to 5203
   -8.8388   -4.0173   10.4439 LP  0  0  0  0  0  0  0  0  0  0  0  0  # atno 5542 bound_to 5203

> <Gold.Score>
     Fitness  S(hb_ext) S(vdw_ext)  S(hb_int)    S(int)      intcor
     37.78       0.05      28.87       0.00      -1.97      -0.76

> <Gold.Goldscore.Fitness>
37.7782

> <Gold.Goldscore.Internal.Vdw>
-2.2658

> <Gold.Goldscore.Internal.Torsion>
-0.4592

> <Gold.Goldscore.External.Vdw>
28.8659

> <Gold.Goldscore.Internal.HBond>
0.0000

> <Gold.Goldscore.External.HBond>
0.0541

> <Gold.Goldscore.Internal.Correction>
-0.7585

> <Gold.Goldscore.Hbonds>
donor molecule, donor type, donor heavy atom, donor atom, acceptor molecule, acceptor atom, score
      P1  H  5203  5212       L1    11  0.03

> <Gold.Goldscore.Internal.Vdw.Weighted>
-2.2658

> <Gold.Goldscore.Internal.Torsion.Weighted>
-0.4592

> <Gold.Goldscore.External.Vdw.Weighted>
39.6906

> <Gold.Goldscore.Internal.HBond.Weighted>
0.0000

> <Gold.Goldscore.External.HBond.Weighted>
0.0541

> <Gold.Goldscore.Internal.Correction.Weighted>
-0.7585

> <Gold.Rescore>
     Score     S(PLP)   S(hbond)     S(cho)   S(metal)  DE(clash)   DE(tors)     intcor
     33.71     -34.25       0.53       0.00       0.00       2.01       0.07       ----

> <Gold.PLP.Fitness>
33.7119

> <Gold.PLP.PLP>
-34.2541

> <Gold.PLP.part.hbond>
-2.0000

> <Gold.PLP.part.metal>
0.0000

> <Gold.PLP.part.buried>
-0.3647

> <Gold.PLP.part.nonpolar>
-34.1304

> <Gold.PLP.part.repulsive>
1.3565

> <Gold.PLP.ligand.clash>
2.0061

> <Gold.PLP.ligand.torsion>
0.0676

> <Gold.PLP.Chemscore.Hbond>
0.5330

> <Gold.PLP.Chemscore.CHOScore>
0.0000

> <Gold.PLP.Chemscore.Metal>
0.0000

> <Gold.Chemscore.Hbonds>
donor molecule, donor type, donor heavy atom, donor atom, acceptor molecule, acceptor atom, score
      L1  H     8    22       P1  2674  0.38

> <Gold.PLP.Chemscore.Internal.Correction>
   9.000000E+99

