#       Name:                GA Fitting Points
#       Creating user name   hitesit
#       Creation time:       Sun Apr 16 22:50:57 2023


#       Fitting Points Used by GA Software.
#

@<TRIPOS>MOLECULE
GA Fitting Points
  5541    0    0
SMALL
NO_CHARGES


@<TRIPOS>ATOM
      1 ****       -13.7500   2.0000  20.7500 Du        
      2 ****       -13.7500   2.0000  21.0000 Du        
      3 ****       -13.5000   1.7500  21.0000 Du        
      4 ****       -13.5000   1.7500  21.2500 Du        
      5 ****       -13.5000   2.0000  21.0000 Du        
      6 ****       -13.5000   2.0000  21.2500 Du        
      7 ****       -13.2500   0.7500  21.7500 Du        
      8 ****       -13.2500   1.0000  21.5000 Du        
      9 ****       -13.2500   1.0000  21.7500 Du        
     10 ****       -13.2500   1.2500  21.2500 Du        
     11 ****       -13.2500   1.2500  21.5000 Du        
     12 ****       -13.2500   1.2500  21.7500 Du        
     13 ****       -13.2500   1.5000  21.0000 Du        
     14 ****       -13.2500   1.5000  21.2500 Du        
     15 ****       -13.2500   1.5000  21.5000 Du        
     16 ****       -13.2500   1.5000  21.7500 Du        
     17 ****       -13.2500   1.7500  21.0000 Du        
     18 ****       -13.2500   1.7500  21.2500 Du        
     19 ****       -13.2500   1.7500  21.5000 Du        
     20 ****       -13.2500   1.7500  21.7500 Du        
     21 ****       -13.2500   2.0000  21.0000 Du        
     22 ****       -13.2500   2.0000  21.2500 Du        
     23 ****       -13.2500   2.0000  21.5000 Du        
     24 ****       -13.0000   0.5000  21.7500 Du        
     25 ****       -13.0000   0.7500  21.5000 Du        
     26 ****       -13.0000   0.7500  21.7500 Du        
     27 ****       -13.0000   0.7500  22.0000 Du        
     28 ****       -13.0000   1.0000  21.5000 Du        
     29 ****       -13.0000   1.0000  21.7500 Du        
     30 ****       -13.0000   1.0000  22.0000 Du        
     31 ****       -13.0000   1.2500  21.2500 Du        
     32 ****       -13.0000   1.2500  21.5000 Du        
     33 ****       -13.0000   1.2500  21.7500 Du        
     34 ****       -13.0000   1.5000  21.0000 Du        
     35 ****       -13.0000   1.5000  21.2500 Du        
     36 ****       -13.0000   1.5000  21.5000 Du        
     37 ****       -13.0000   1.5000  21.7500 Du        
     38 ****       -13.0000   1.5000  22.0000 Du        
     39 ****       -13.0000   1.7500  21.0000 Du        
     40 ****       -13.0000   1.7500  21.2500 Du        
     41 ****       -13.0000   1.7500  21.5000 Du        
     42 ****       -13.0000   1.7500  21.7500 Du        
     43 ****       -13.0000   1.7500  22.0000 Du        
     44 ****       -13.0000   2.0000  21.2500 Du        
     45 ****       -13.0000   2.0000  21.5000 Du        
     46 ****       -13.0000   2.0000  21.7500 Du        
     47 ****       -12.7500  -3.7500  11.2500 Du        
     48 ****       -12.7500  -3.7500  11.5000 Du        
     49 ****       -12.7500  -3.7500  11.7500 Du        
     50 ****       -12.7500  -3.5000  11.5000 Du        
     51 ****       -12.7500  -3.5000  11.7500 Du        
     52 ****       -12.7500  -3.2500  11.5000 Du        
     53 ****       -12.7500  -3.2500  11.7500 Du        
     54 ****       -12.7500  -3.0000  11.2500 Du        
     55 ****       -12.7500  -3.0000  11.5000 Du        
     56 ****       -12.7500   0.2500  21.7500 Du        
     57 ****       -12.7500   0.2500  22.0000 Du        
     58 ****       -12.7500   0.5000  21.7500 Du        
     59 ****       -12.7500   0.5000  22.0000 Du        
     60 ****       -12.7500   0.7500  21.5000 Du        
     61 ****       -12.7500   0.7500  21.7500 Du        
     62 ****       -12.7500   0.7500  22.0000 Du        
     63 ****       -12.7500   1.0000  21.5000 Du        
     64 ****       -12.7500   1.0000  21.7500 Du        
     65 ****       -12.7500   1.2500  21.2500 Du        
     66 ****       -12.7500   1.2500  21.5000 Du        
     67 ****       -12.7500   1.2500  21.7500 Du        
     68 ****       -12.7500   1.5000  21.5000 Du        
     69 ****       -12.7500   1.5000  21.7500 Du        
     70 ****       -12.5000  -3.7500  11.0000 Du        
     71 ****       -12.5000  -3.7500  11.2500 Du        
     72 ****       -12.5000  -3.7500  11.5000 Du        
     73 ****       -12.5000  -3.7500  11.7500 Du        
     74 ****       -12.5000  -3.7500  12.0000 Du        
     75 ****       -12.5000  -3.5000  11.0000 Du        
     76 ****       -12.5000  -3.5000  11.2500 Du        
     77 ****       -12.5000  -3.5000  11.5000 Du        
     78 ****       -12.5000  -3.5000  11.7500 Du        
     79 ****       -12.5000  -3.2500  11.0000 Du        
     80 ****       -12.5000  -3.2500  11.2500 Du        
     81 ****       -12.5000  -3.2500  11.5000 Du        
     82 ****       -12.5000  -3.2500  11.7500 Du        
     83 ****       -12.5000  -3.0000  11.0000 Du        
     84 ****       -12.5000  -3.0000  11.2500 Du        
     85 ****       -12.5000  -3.0000  11.5000 Du        
     86 ****       -12.5000  -3.0000  11.7500 Du        
     87 ****       -12.5000  -2.7500  11.2500 Du        
     88 ****       -12.5000  -2.7500  11.5000 Du        
     89 ****       -12.2500  -4.0000  10.5000 Du        
     90 ****       -12.2500  -4.0000  10.7500 Du        
     91 ****       -12.2500  -4.0000  11.0000 Du        
     92 ****       -12.2500  -4.0000  11.2500 Du        
     93 ****       -12.2500  -3.7500  10.5000 Du        
     94 ****       -12.2500  -3.7500  10.7500 Du        
     95 ****       -12.2500  -3.7500  11.0000 Du        
     96 ****       -12.2500  -3.7500  11.2500 Du        
     97 ****       -12.2500  -3.7500  11.5000 Du        
     98 ****       -12.2500  -3.7500  11.7500 Du        
     99 ****       -12.2500  -3.7500  12.0000 Du        
    100 ****       -12.2500  -3.7500  12.2500 Du        
    101 ****       -12.2500  -3.5000  10.5000 Du        
    102 ****       -12.2500  -3.5000  10.7500 Du        
    103 ****       -12.2500  -3.5000  11.0000 Du        
    104 ****       -12.2500  -3.5000  11.2500 Du        
    105 ****       -12.2500  -3.5000  11.5000 Du        
    106 ****       -12.2500  -3.5000  11.7500 Du        
    107 ****       -12.2500  -3.5000  12.0000 Du        
    108 ****       -12.2500  -3.2500  10.7500 Du        
    109 ****       -12.2500  -3.2500  11.0000 Du        
    110 ****       -12.2500  -3.2500  11.2500 Du        
    111 ****       -12.2500  -3.2500  11.5000 Du        
    112 ****       -12.2500  -3.2500  11.7500 Du        
    113 ****       -12.2500  -3.2500  12.0000 Du        
    114 ****       -12.2500  -3.0000  10.7500 Du        
    115 ****       -12.2500  -3.0000  11.0000 Du        
    116 ****       -12.2500  -3.0000  11.2500 Du        
    117 ****       -12.2500  -3.0000  11.5000 Du        
    118 ****       -12.2500  -3.0000  11.7500 Du        
    119 ****       -12.2500  -2.7500  11.2500 Du        
    120 ****       -12.2500  -2.7500  11.5000 Du        
    121 ****       -12.2500  -0.7500  22.0000 Du        
    122 ****       -12.2500  -0.5000  22.0000 Du        
    123 ****       -12.2500  -0.2500  22.0000 Du        
    124 ****       -12.2500   0.0000  22.0000 Du        
    125 ****       -12.0000  -4.2500  10.5000 Du        
    126 ****       -12.0000  -4.2500  10.7500 Du        
    127 ****       -12.0000  -4.2500  17.5000 Du        
    128 ****       -12.0000  -4.2500  17.7500 Du        
    129 ****       -12.0000  -4.0000  10.5000 Du        
    130 ****       -12.0000  -4.0000  10.7500 Du        
    131 ****       -12.0000  -4.0000  11.0000 Du        
    132 ****       -12.0000  -4.0000  11.2500 Du        
    133 ****       -12.0000  -4.0000  11.5000 Du        
    134 ****       -12.0000  -4.0000  11.7500 Du        
    135 ****       -12.0000  -4.0000  12.0000 Du        
    136 ****       -12.0000  -4.0000  17.2500 Du        
    137 ****       -12.0000  -4.0000  17.5000 Du        
    138 ****       -12.0000  -4.0000  17.7500 Du        
    139 ****       -12.0000  -4.0000  18.0000 Du        
    140 ****       -12.0000  -3.7500  10.5000 Du        
    141 ****       -12.0000  -3.7500  10.7500 Du        
    142 ****       -12.0000  -3.7500  11.0000 Du        
    143 ****       -12.0000  -3.7500  11.2500 Du        
    144 ****       -12.0000  -3.7500  11.5000 Du        
    145 ****       -12.0000  -3.7500  11.7500 Du        
    146 ****       -12.0000  -3.7500  12.0000 Du        
    147 ****       -12.0000  -3.7500  12.2500 Du        
    148 ****       -12.0000  -3.7500  12.5000 Du        
    149 ****       -12.0000  -3.7500  17.2500 Du        
    150 ****       -12.0000  -3.7500  17.5000 Du        
    151 ****       -12.0000  -3.7500  17.7500 Du        
    152 ****       -12.0000  -3.7500  18.0000 Du        
    153 ****       -12.0000  -3.5000  10.5000 Du        
    154 ****       -12.0000  -3.5000  10.7500 Du        
    155 ****       -12.0000  -3.5000  11.0000 Du        
    156 ****       -12.0000  -3.5000  11.2500 Du        
    157 ****       -12.0000  -3.5000  11.5000 Du        
    158 ****       -12.0000  -3.5000  11.7500 Du        
    159 ****       -12.0000  -3.5000  12.0000 Du        
    160 ****       -12.0000  -3.5000  17.5000 Du        
    161 ****       -12.0000  -3.5000  17.7500 Du        
    162 ****       -12.0000  -3.2500  10.5000 Du        
    163 ****       -12.0000  -3.2500  10.7500 Du        
    164 ****       -12.0000  -3.2500  11.0000 Du        
    165 ****       -12.0000  -3.2500  11.2500 Du        
    166 ****       -12.0000  -3.2500  11.5000 Du        
    167 ****       -12.0000  -3.2500  11.7500 Du        
    168 ****       -12.0000  -3.2500  12.0000 Du        
    169 ****       -12.0000  -3.0000  11.0000 Du        
    170 ****       -12.0000  -3.0000  11.2500 Du        
    171 ****       -12.0000  -3.0000  11.5000 Du        
    172 ****       -12.0000  -3.0000  11.7500 Du        
    173 ****       -12.0000  -3.0000  12.0000 Du        
    174 ****       -12.0000  -3.0000  23.7500 Du        
    175 ****       -12.0000  -2.7500  23.5000 Du        
    176 ****       -12.0000  -2.7500  23.7500 Du        
    177 ****       -12.0000  -2.5000  23.5000 Du        
    178 ****       -12.0000  -2.5000  23.7500 Du        
    179 ****       -12.0000  -2.2500  23.0000 Du        
    180 ****       -12.0000  -2.2500  23.2500 Du        
    181 ****       -12.0000  -2.2500  23.5000 Du        
    182 ****       -12.0000  -2.2500  23.7500 Du        
    183 ****       -12.0000  -2.0000  22.7500 Du        
    184 ****       -12.0000  -2.0000  23.0000 Du        
    185 ****       -12.0000  -2.0000  23.2500 Du        
    186 ****       -12.0000  -1.7500  22.2500 Du        
    187 ****       -12.0000  -1.7500  22.5000 Du        
    188 ****       -12.0000  -1.7500  22.7500 Du        
    189 ****       -12.0000  -1.7500  23.0000 Du        
    190 ****       -12.0000  -1.2500  22.2500 Du        
    191 ****       -12.0000  -1.0000  22.0000 Du        
    192 ****       -12.0000  -1.0000  22.2500 Du        
    193 ****       -12.0000  -0.7500  22.0000 Du        
    194 ****       -12.0000  -0.7500  22.2500 Du        
    195 ****       -12.0000  -0.5000  22.0000 Du        
    196 ****       -11.7500  -8.0000  17.0000 Du        
    197 ****       -11.7500  -7.7500  16.7500 Du        
    198 ****       -11.7500  -7.7500  17.0000 Du        
    199 ****       -11.7500  -7.7500  17.2500 Du        
    200 ****       -11.7500  -7.5000  17.0000 Du        
    201 ****       -11.7500  -7.5000  17.2500 Du        
    202 ****       -11.7500  -7.5000  17.5000 Du        
    203 ****       -11.7500  -7.2500  17.0000 Du        
    204 ****       -11.7500  -7.2500  17.2500 Du        
    205 ****       -11.7500  -7.2500  17.5000 Du        
    206 ****       -11.7500  -7.2500  17.7500 Du        
    207 ****       -11.7500  -7.0000  17.0000 Du        
    208 ****       -11.7500  -7.0000  17.2500 Du        
    209 ****       -11.7500  -7.0000  17.5000 Du        
    210 ****       -11.7500  -7.0000  17.7500 Du        
    211 ****       -11.7500  -6.7500  17.0000 Du        
    212 ****       -11.7500  -6.7500  17.2500 Du        
    213 ****       -11.7500  -6.7500  17.5000 Du        
    214 ****       -11.7500  -6.7500  17.7500 Du        
    215 ****       -11.7500  -6.5000  17.0000 Du        
    216 ****       -11.7500  -6.5000  17.2500 Du        
    217 ****       -11.7500  -6.5000  17.5000 Du        
    218 ****       -11.7500  -6.2500  17.0000 Du        
    219 ****       -11.7500  -6.2500  17.2500 Du        
    220 ****       -11.7500  -6.2500  17.5000 Du        
    221 ****       -11.7500  -6.0000  16.7500 Du        
    222 ****       -11.7500  -6.0000  17.0000 Du        
    223 ****       -11.7500  -6.0000  17.2500 Du        
    224 ****       -11.7500  -5.7500  16.7500 Du        
    225 ****       -11.7500  -5.7500  17.0000 Du        
    226 ****       -11.7500  -5.7500  17.2500 Du        
    227 ****       -11.7500  -5.5000  16.7500 Du        
    228 ****       -11.7500  -5.5000  17.0000 Du        
    229 ****       -11.7500  -5.5000  17.2500 Du        
    230 ****       -11.7500  -5.2500  16.7500 Du        
    231 ****       -11.7500  -5.2500  17.0000 Du        
    232 ****       -11.7500  -5.2500  17.2500 Du        
    233 ****       -11.7500  -5.0000  10.0000 Du        
    234 ****       -11.7500  -5.0000  17.0000 Du        
    235 ****       -11.7500  -5.0000  17.2500 Du        
    236 ****       -11.7500  -5.0000  17.5000 Du        
    237 ****       -11.7500  -4.7500  10.0000 Du        
    238 ****       -11.7500  -4.7500  10.2500 Du        
    239 ****       -11.7500  -4.7500  17.0000 Du        
    240 ****       -11.7500  -4.7500  17.2500 Du        
    241 ****       -11.7500  -4.7500  17.5000 Du        
    242 ****       -11.7500  -4.7500  17.7500 Du        
    243 ****       -11.7500  -4.5000  10.0000 Du        
    244 ****       -11.7500  -4.5000  10.2500 Du        
    245 ****       -11.7500  -4.5000  17.0000 Du        
    246 ****       -11.7500  -4.5000  17.2500 Du        
    247 ****       -11.7500  -4.5000  17.5000 Du        
    248 ****       -11.7500  -4.5000  17.7500 Du        
    249 ****       -11.7500  -4.5000  18.0000 Du        
    250 ****       -11.7500  -4.2500  10.0000 Du        
    251 ****       -11.7500  -4.2500  10.2500 Du        
    252 ****       -11.7500  -4.2500  10.5000 Du        
    253 ****       -11.7500  -4.2500  10.7500 Du        
    254 ****       -11.7500  -4.2500  11.0000 Du        
    255 ****       -11.7500  -4.2500  17.0000 Du        
    256 ****       -11.7500  -4.2500  17.2500 Du        
    257 ****       -11.7500  -4.2500  17.5000 Du        
    258 ****       -11.7500  -4.2500  17.7500 Du        
    259 ****       -11.7500  -4.2500  18.0000 Du        
    260 ****       -11.7500  -4.2500  18.2500 Du        
    261 ****       -11.7500  -4.2500  18.5000 Du        
    262 ****       -11.7500  -4.0000  10.0000 Du        
    263 ****       -11.7500  -4.0000  10.2500 Du        
    264 ****       -11.7500  -4.0000  10.5000 Du        
    265 ****       -11.7500  -4.0000  10.7500 Du        
    266 ****       -11.7500  -4.0000  11.0000 Du        
    267 ****       -11.7500  -4.0000  11.2500 Du        
    268 ****       -11.7500  -4.0000  11.5000 Du        
    269 ****       -11.7500  -4.0000  11.7500 Du        
    270 ****       -11.7500  -4.0000  12.0000 Du        
    271 ****       -11.7500  -4.0000  12.2500 Du        
    272 ****       -11.7500  -4.0000  17.0000 Du        
    273 ****       -11.7500  -4.0000  17.2500 Du        
    274 ****       -11.7500  -4.0000  17.5000 Du        
    275 ****       -11.7500  -4.0000  17.7500 Du        
    276 ****       -11.7500  -4.0000  18.0000 Du        
    277 ****       -11.7500  -4.0000  18.2500 Du        
    278 ****       -11.7500  -4.0000  18.5000 Du        
    279 ****       -11.7500  -4.0000  18.7500 Du        
    280 ****       -11.7500  -3.7500  10.0000 Du        
    281 ****       -11.7500  -3.7500  10.2500 Du        
    282 ****       -11.7500  -3.7500  10.5000 Du        
    283 ****       -11.7500  -3.7500  10.7500 Du        
    284 ****       -11.7500  -3.7500  11.0000 Du        
    285 ****       -11.7500  -3.7500  11.2500 Du        
    286 ****       -11.7500  -3.7500  11.5000 Du        
    287 ****       -11.7500  -3.7500  11.7500 Du        
    288 ****       -11.7500  -3.7500  12.0000 Du        
    289 ****       -11.7500  -3.7500  12.2500 Du        
    290 ****       -11.7500  -3.7500  12.5000 Du        
    291 ****       -11.7500  -3.7500  12.7500 Du        
    292 ****       -11.7500  -3.7500  17.0000 Du        
    293 ****       -11.7500  -3.7500  17.2500 Du        
    294 ****       -11.7500  -3.7500  17.5000 Du        
    295 ****       -11.7500  -3.7500  17.7500 Du        
    296 ****       -11.7500  -3.7500  18.0000 Du        
    297 ****       -11.7500  -3.7500  18.2500 Du        
    298 ****       -11.7500  -3.7500  18.5000 Du        
    299 ****       -11.7500  -3.7500  18.7500 Du        
    300 ****       -11.7500  -3.5000  10.2500 Du        
    301 ****       -11.7500  -3.5000  10.7500 Du        
    302 ****       -11.7500  -3.5000  11.0000 Du        
    303 ****       -11.7500  -3.5000  11.2500 Du        
    304 ****       -11.7500  -3.5000  11.5000 Du        
    305 ****       -11.7500  -3.5000  11.7500 Du        
    306 ****       -11.7500  -3.5000  12.0000 Du        
    307 ****       -11.7500  -3.5000  12.5000 Du        
    308 ****       -11.7500  -3.5000  17.5000 Du        
    309 ****       -11.7500  -3.5000  17.7500 Du        
    310 ****       -11.7500  -3.5000  18.0000 Du        
    311 ****       -11.7500  -3.5000  18.2500 Du        
    312 ****       -11.7500  -3.2500  10.7500 Du        
    313 ****       -11.7500  -3.2500  11.0000 Du        
    314 ****       -11.7500  -3.2500  11.2500 Du        
    315 ****       -11.7500  -3.2500  11.7500 Du        
    316 ****       -11.7500  -3.2500  12.0000 Du        
    317 ****       -11.7500  -3.2500  17.5000 Du        
    318 ****       -11.7500  -3.2500  17.7500 Du        
    319 ****       -11.7500  -3.0000  23.7500 Du        
    320 ****       -11.7500  -2.7500  23.2500 Du        
    321 ****       -11.7500  -2.7500  23.5000 Du        
    322 ****       -11.7500  -2.7500  23.7500 Du        
    323 ****       -11.7500  -2.5000  23.0000 Du        
    324 ****       -11.7500  -2.5000  23.2500 Du        
    325 ****       -11.7500  -2.5000  23.5000 Du        
    326 ****       -11.7500  -2.5000  23.7500 Du        
    327 ****       -11.7500  -2.2500  22.7500 Du        
    328 ****       -11.7500  -2.2500  23.0000 Du        
    329 ****       -11.7500  -2.2500  23.2500 Du        
    330 ****       -11.7500  -2.2500  23.5000 Du        
    331 ****       -11.7500  -2.2500  23.7500 Du        
    332 ****       -11.7500  -2.0000  22.0000 Du        
    333 ****       -11.7500  -2.0000  22.2500 Du        
    334 ****       -11.7500  -2.0000  22.5000 Du        
    335 ****       -11.7500  -2.0000  22.7500 Du        
    336 ****       -11.7500  -2.0000  23.0000 Du        
    337 ****       -11.7500  -2.0000  23.2500 Du        
    338 ****       -11.7500  -2.0000  23.5000 Du        
    339 ****       -11.7500  -1.7500  22.0000 Du        
    340 ****       -11.7500  -1.7500  22.2500 Du        
    341 ****       -11.7500  -1.7500  22.5000 Du        
    342 ****       -11.7500  -1.7500  22.7500 Du        
    343 ****       -11.7500  -1.7500  23.0000 Du        
    344 ****       -11.7500  -1.7500  23.2500 Du        
    345 ****       -11.7500  -1.5000  22.2500 Du        
    346 ****       -11.7500  -1.5000  22.5000 Du        
    347 ****       -11.7500  -1.5000  22.7500 Du        
    348 ****       -11.7500  -1.5000  23.0000 Du        
    349 ****       -11.7500  -1.2500  22.0000 Du        
    350 ****       -11.7500  -1.2500  22.2500 Du        
    351 ****       -11.7500  -1.2500  22.5000 Du        
    352 ****       -11.7500  -1.2500  22.7500 Du        
    353 ****       -11.7500  -1.0000  22.2500 Du        
    354 ****       -11.5000  -8.5000  16.2500 Du        
    355 ****       -11.5000  -8.5000  16.5000 Du        
    356 ****       -11.5000  -8.5000  16.7500 Du        
    357 ****       -11.5000  -8.2500  16.2500 Du        
    358 ****       -11.5000  -8.2500  16.5000 Du        
    359 ****       -11.5000  -8.2500  16.7500 Du        
    360 ****       -11.5000  -8.2500  17.0000 Du        
    361 ****       -11.5000  -8.0000  16.2500 Du        
    362 ****       -11.5000  -8.0000  16.5000 Du        
    363 ****       -11.5000  -8.0000  16.7500 Du        
    364 ****       -11.5000  -8.0000  17.0000 Du        
    365 ****       -11.5000  -8.0000  17.2500 Du        
    366 ****       -11.5000  -7.7500  16.5000 Du        
    367 ****       -11.5000  -7.7500  16.7500 Du        
    368 ****       -11.5000  -7.7500  17.0000 Du        
    369 ****       -11.5000  -7.7500  17.2500 Du        
    370 ****       -11.5000  -7.7500  17.5000 Du        
    371 ****       -11.5000  -7.5000  16.5000 Du        
    372 ****       -11.5000  -7.5000  16.7500 Du        
    373 ****       -11.5000  -7.5000  17.0000 Du        
    374 ****       -11.5000  -7.5000  17.2500 Du        
    375 ****       -11.5000  -7.5000  17.5000 Du        
    376 ****       -11.5000  -7.5000  17.7500 Du        
    377 ****       -11.5000  -7.2500  16.5000 Du        
    378 ****       -11.5000  -7.2500  16.7500 Du        
    379 ****       -11.5000  -7.2500  17.0000 Du        
    380 ****       -11.5000  -7.2500  17.2500 Du        
    381 ****       -11.5000  -7.2500  17.5000 Du        
    382 ****       -11.5000  -7.2500  17.7500 Du        
    383 ****       -11.5000  -7.2500  18.0000 Du        
    384 ****       -11.5000  -7.0000  16.5000 Du        
    385 ****       -11.5000  -7.0000  16.7500 Du        
    386 ****       -11.5000  -7.0000  17.0000 Du        
    387 ****       -11.5000  -7.0000  17.2500 Du        
    388 ****       -11.5000  -7.0000  17.5000 Du        
    389 ****       -11.5000  -7.0000  17.7500 Du        
    390 ****       -11.5000  -7.0000  18.0000 Du        
    391 ****       -11.5000  -7.0000  18.2500 Du        
    392 ****       -11.5000  -6.7500  16.5000 Du        
    393 ****       -11.5000  -6.7500  16.7500 Du        
    394 ****       -11.5000  -6.7500  17.0000 Du        
    395 ****       -11.5000  -6.7500  17.2500 Du        
    396 ****       -11.5000  -6.7500  17.5000 Du        
    397 ****       -11.5000  -6.7500  17.7500 Du        
    398 ****       -11.5000  -6.7500  18.0000 Du        
    399 ****       -11.5000  -6.7500  18.2500 Du        
    400 ****       -11.5000  -6.5000  16.5000 Du        
    401 ****       -11.5000  -6.5000  16.7500 Du        
    402 ****       -11.5000  -6.5000  17.0000 Du        
    403 ****       -11.5000  -6.5000  17.2500 Du        
    404 ****       -11.5000  -6.5000  17.5000 Du        
    405 ****       -11.5000  -6.5000  17.7500 Du        
    406 ****       -11.5000  -6.5000  18.0000 Du        
    407 ****       -11.5000  -6.2500  16.5000 Du        
    408 ****       -11.5000  -6.2500  16.7500 Du        
    409 ****       -11.5000  -6.2500  17.0000 Du        
    410 ****       -11.5000  -6.2500  17.2500 Du        
    411 ****       -11.5000  -6.2500  17.5000 Du        
    412 ****       -11.5000  -6.2500  17.7500 Du        
    413 ****       -11.5000  -6.0000  16.2500 Du        
    414 ****       -11.5000  -6.0000  16.5000 Du        
    415 ****       -11.5000  -6.0000  16.7500 Du        
    416 ****       -11.5000  -6.0000  17.0000 Du        
    417 ****       -11.5000  -6.0000  17.2500 Du        
    418 ****       -11.5000  -6.0000  17.5000 Du        
    419 ****       -11.5000  -6.0000  17.7500 Du        
    420 ****       -11.5000  -5.7500  16.5000 Du        
    421 ****       -11.5000  -5.7500  16.7500 Du        
    422 ****       -11.5000  -5.7500  17.0000 Du        
    423 ****       -11.5000  -5.7500  17.2500 Du        
    424 ****       -11.5000  -5.7500  17.5000 Du        
    425 ****       -11.5000  -5.5000  16.5000 Du        
    426 ****       -11.5000  -5.5000  16.7500 Du        
    427 ****       -11.5000  -5.5000  17.0000 Du        
    428 ****       -11.5000  -5.5000  17.2500 Du        
    429 ****       -11.5000  -5.5000  17.5000 Du        
    430 ****       -11.5000  -5.2500  16.7500 Du        
    431 ****       -11.5000  -5.2500  17.0000 Du        
    432 ****       -11.5000  -5.2500  17.2500 Du        
    433 ****       -11.5000  -5.2500  17.5000 Du        
    434 ****       -11.5000  -5.2500  17.7500 Du        
    435 ****       -11.5000  -5.0000  16.7500 Du        
    436 ****       -11.5000  -5.0000  17.0000 Du        
    437 ****       -11.5000  -5.0000  17.2500 Du        
    438 ****       -11.5000  -5.0000  17.5000 Du        
    439 ****       -11.5000  -5.0000  17.7500 Du        
    440 ****       -11.5000  -5.0000  18.0000 Du        
    441 ****       -11.5000  -4.7500  17.0000 Du        
    442 ****       -11.5000  -4.7500  17.2500 Du        
    443 ****       -11.5000  -4.7500  17.5000 Du        
    444 ****       -11.5000  -4.7500  17.7500 Du        
    445 ****       -11.5000  -4.7500  18.0000 Du        
    446 ****       -11.5000  -4.7500  18.2500 Du        
    447 ****       -11.5000  -4.5000  17.0000 Du        
    448 ****       -11.5000  -4.5000  17.2500 Du        
    449 ****       -11.5000  -4.5000  17.5000 Du        
    450 ****       -11.5000  -4.5000  17.7500 Du        
    451 ****       -11.5000  -4.5000  18.0000 Du        
    452 ****       -11.5000  -4.5000  18.2500 Du        
    453 ****       -11.5000  -4.2500  17.0000 Du        
    454 ****       -11.5000  -4.2500  17.2500 Du        
    455 ****       -11.5000  -4.2500  17.5000 Du        
    456 ****       -11.5000  -4.2500  17.7500 Du        
    457 ****       -11.5000  -4.2500  18.0000 Du        
    458 ****       -11.5000  -4.2500  18.2500 Du        
    459 ****       -11.5000  -4.0000  17.0000 Du        
    460 ****       -11.5000  -4.0000  17.2500 Du        
    461 ****       -11.5000  -4.0000  17.5000 Du        
    462 ****       -11.5000  -4.0000  17.7500 Du        
    463 ****       -11.5000  -4.0000  18.0000 Du        
    464 ****       -11.5000  -4.0000  18.2500 Du        
    465 ****       -11.5000  -3.7500  12.0000 Du        
    466 ****       -11.5000  -3.7500  17.0000 Du        
    467 ****       -11.5000  -3.7500  17.2500 Du        
    468 ****       -11.5000  -3.7500  17.5000 Du        
    469 ****       -11.5000  -3.7500  17.7500 Du        
    470 ****       -11.5000  -3.7500  18.0000 Du        
    471 ****       -11.5000  -3.7500  18.2500 Du        
    472 ****       -11.5000  -3.0000  23.7500 Du        
    473 ****       -11.5000  -2.7500  23.2500 Du        
    474 ****       -11.5000  -2.7500  23.5000 Du        
    475 ****       -11.5000  -2.7500  23.7500 Du        
    476 ****       -11.5000  -2.5000  23.2500 Du        
    477 ****       -11.5000  -2.5000  23.5000 Du        
    478 ****       -11.5000  -2.5000  23.7500 Du        
    479 ****       -11.5000  -2.2500  22.7500 Du        
    480 ****       -11.5000  -2.2500  23.0000 Du        
    481 ****       -11.5000  -2.2500  23.2500 Du        
    482 ****       -11.5000  -2.2500  23.5000 Du        
    483 ****       -11.5000  -2.2500  23.7500 Du        
    484 ****       -11.5000  -2.0000  22.0000 Du        
    485 ****       -11.5000  -2.0000  22.2500 Du        
    486 ****       -11.5000  -2.0000  22.5000 Du        
    487 ****       -11.5000  -2.0000  22.7500 Du        
    488 ****       -11.5000  -2.0000  23.0000 Du        
    489 ****       -11.5000  -2.0000  23.2500 Du        
    490 ****       -11.5000  -2.0000  23.5000 Du        
    491 ****       -11.5000  -2.0000  23.7500 Du        
    492 ****       -11.5000  -1.7500  22.0000 Du        
    493 ****       -11.5000  -1.7500  22.2500 Du        
    494 ****       -11.5000  -1.7500  22.5000 Du        
    495 ****       -11.5000  -1.7500  22.7500 Du        
    496 ****       -11.5000  -1.7500  23.0000 Du        
    497 ****       -11.5000  -1.7500  23.2500 Du        
    498 ****       -11.2500  -8.7500  16.0000 Du        
    499 ****       -11.2500  -8.7500  16.2500 Du        
    500 ****       -11.2500  -8.7500  16.5000 Du        
    501 ****       -11.2500  -8.5000  16.0000 Du        
    502 ****       -11.2500  -8.5000  16.2500 Du        
    503 ****       -11.2500  -8.5000  16.5000 Du        
    504 ****       -11.2500  -8.5000  16.7500 Du        
    505 ****       -11.2500  -8.2500  16.0000 Du        
    506 ****       -11.2500  -8.2500  16.2500 Du        
    507 ****       -11.2500  -8.2500  16.5000 Du        
    508 ****       -11.2500  -8.2500  16.7500 Du        
    509 ****       -11.2500  -8.2500  17.0000 Du        
    510 ****       -11.2500  -8.2500  17.2500 Du        
    511 ****       -11.2500  -8.0000  16.0000 Du        
    512 ****       -11.2500  -8.0000  16.2500 Du        
    513 ****       -11.2500  -8.0000  16.5000 Du        
    514 ****       -11.2500  -8.0000  16.7500 Du        
    515 ****       -11.2500  -8.0000  17.0000 Du        
    516 ****       -11.2500  -8.0000  17.2500 Du        
    517 ****       -11.2500  -8.0000  17.5000 Du        
    518 ****       -11.2500  -7.7500  16.0000 Du        
    519 ****       -11.2500  -7.7500  16.2500 Du        
    520 ****       -11.2500  -7.7500  16.5000 Du        
    521 ****       -11.2500  -7.7500  16.7500 Du        
    522 ****       -11.2500  -7.7500  17.0000 Du        
    523 ****       -11.2500  -7.7500  17.2500 Du        
    524 ****       -11.2500  -7.7500  17.5000 Du        
    525 ****       -11.2500  -7.7500  17.7500 Du        
    526 ****       -11.2500  -7.5000  16.2500 Du        
    527 ****       -11.2500  -7.5000  16.5000 Du        
    528 ****       -11.2500  -7.5000  16.7500 Du        
    529 ****       -11.2500  -7.5000  17.0000 Du        
    530 ****       -11.2500  -7.5000  17.2500 Du        
    531 ****       -11.2500  -7.5000  17.5000 Du        
    532 ****       -11.2500  -7.5000  17.7500 Du        
    533 ****       -11.2500  -7.5000  18.0000 Du        
    534 ****       -11.2500  -7.2500  16.2500 Du        
    535 ****       -11.2500  -7.2500  16.5000 Du        
    536 ****       -11.2500  -7.2500  16.7500 Du        
    537 ****       -11.2500  -7.2500  17.0000 Du        
    538 ****       -11.2500  -7.2500  17.2500 Du        
    539 ****       -11.2500  -7.2500  17.5000 Du        
    540 ****       -11.2500  -7.2500  17.7500 Du        
    541 ****       -11.2500  -7.2500  18.0000 Du        
    542 ****       -11.2500  -7.2500  18.2500 Du        
    543 ****       -11.2500  -7.0000  16.0000 Du        
    544 ****       -11.2500  -7.0000  16.2500 Du        
    545 ****       -11.2500  -7.0000  16.5000 Du        
    546 ****       -11.2500  -7.0000  16.7500 Du        
    547 ****       -11.2500  -7.0000  17.0000 Du        
    548 ****       -11.2500  -7.0000  17.2500 Du        
    549 ****       -11.2500  -7.0000  17.5000 Du        
    550 ****       -11.2500  -7.0000  17.7500 Du        
    551 ****       -11.2500  -7.0000  18.0000 Du        
    552 ****       -11.2500  -7.0000  18.2500 Du        
    553 ****       -11.2500  -6.7500  16.0000 Du        
    554 ****       -11.2500  -6.7500  16.2500 Du        
    555 ****       -11.2500  -6.7500  16.5000 Du        
    556 ****       -11.2500  -6.7500  16.7500 Du        
    557 ****       -11.2500  -6.7500  17.0000 Du        
    558 ****       -11.2500  -6.7500  17.2500 Du        
    559 ****       -11.2500  -6.7500  17.5000 Du        
    560 ****       -11.2500  -6.7500  17.7500 Du        
    561 ****       -11.2500  -6.7500  18.0000 Du        
    562 ****       -11.2500  -6.7500  18.2500 Du        
    563 ****       -11.2500  -6.5000  16.2500 Du        
    564 ****       -11.2500  -6.5000  16.5000 Du        
    565 ****       -11.2500  -6.5000  16.7500 Du        
    566 ****       -11.2500  -6.5000  17.0000 Du        
    567 ****       -11.2500  -6.5000  17.2500 Du        
    568 ****       -11.2500  -6.5000  17.5000 Du        
    569 ****       -11.2500  -6.5000  17.7500 Du        
    570 ****       -11.2500  -6.5000  18.0000 Du        
    571 ****       -11.2500  -6.5000  18.2500 Du        
    572 ****       -11.2500  -6.2500  16.0000 Du        
    573 ****       -11.2500  -6.2500  16.2500 Du        
    574 ****       -11.2500  -6.2500  16.5000 Du        
    575 ****       -11.2500  -6.2500  16.7500 Du        
    576 ****       -11.2500  -6.2500  17.0000 Du        
    577 ****       -11.2500  -6.2500  17.2500 Du        
    578 ****       -11.2500  -6.2500  17.5000 Du        
    579 ****       -11.2500  -6.2500  17.7500 Du        
    580 ****       -11.2500  -6.2500  18.0000 Du        
    581 ****       -11.2500  -6.2500  18.2500 Du        
    582 ****       -11.2500  -6.0000  16.0000 Du        
    583 ****       -11.2500  -6.0000  16.2500 Du        
    584 ****       -11.2500  -6.0000  16.5000 Du        
    585 ****       -11.2500  -6.0000  16.7500 Du        
    586 ****       -11.2500  -6.0000  17.0000 Du        
    587 ****       -11.2500  -6.0000  17.2500 Du        
    588 ****       -11.2500  -6.0000  17.5000 Du        
    589 ****       -11.2500  -6.0000  17.7500 Du        
    590 ****       -11.2500  -6.0000  18.0000 Du        
    591 ****       -11.2500  -6.0000  18.2500 Du        
    592 ****       -11.2500  -5.7500  16.0000 Du        
    593 ****       -11.2500  -5.7500  16.2500 Du        
    594 ****       -11.2500  -5.7500  16.5000 Du        
    595 ****       -11.2500  -5.7500  16.7500 Du        
    596 ****       -11.2500  -5.7500  17.0000 Du        
    597 ****       -11.2500  -5.7500  17.2500 Du        
    598 ****       -11.2500  -5.7500  17.5000 Du        
    599 ****       -11.2500  -5.7500  17.7500 Du        
    600 ****       -11.2500  -5.7500  18.0000 Du        
    601 ****       -11.2500  -5.7500  18.2500 Du        
    602 ****       -11.2500  -5.5000  16.5000 Du        
    603 ****       -11.2500  -5.5000  16.7500 Du        
    604 ****       -11.2500  -5.5000  17.0000 Du        
    605 ****       -11.2500  -5.5000  17.2500 Du        
    606 ****       -11.2500  -5.5000  17.5000 Du        
    607 ****       -11.2500  -5.5000  17.7500 Du        
    608 ****       -11.2500  -5.5000  18.0000 Du        
    609 ****       -11.2500  -5.5000  18.2500 Du        
    610 ****       -11.2500  -5.2500  16.5000 Du        
    611 ****       -11.2500  -5.2500  16.7500 Du        
    612 ****       -11.2500  -5.2500  17.0000 Du        
    613 ****       -11.2500  -5.2500  17.2500 Du        
    614 ****       -11.2500  -5.2500  17.5000 Du        
    615 ****       -11.2500  -5.2500  17.7500 Du        
    616 ****       -11.2500  -5.2500  18.0000 Du        
    617 ****       -11.2500  -5.2500  18.2500 Du        
    618 ****       -11.2500  -5.0000  16.5000 Du        
    619 ****       -11.2500  -5.0000  16.7500 Du        
    620 ****       -11.2500  -5.0000  17.0000 Du        
    621 ****       -11.2500  -5.0000  17.2500 Du        
    622 ****       -11.2500  -5.0000  17.5000 Du        
    623 ****       -11.2500  -5.0000  17.7500 Du        
    624 ****       -11.2500  -5.0000  18.0000 Du        
    625 ****       -11.2500  -5.0000  18.2500 Du        
    626 ****       -11.2500  -4.7500  16.5000 Du        
    627 ****       -11.2500  -4.7500  16.7500 Du        
    628 ****       -11.2500  -4.7500  17.0000 Du        
    629 ****       -11.2500  -4.7500  17.2500 Du        
    630 ****       -11.2500  -4.7500  17.5000 Du        
    631 ****       -11.2500  -4.7500  17.7500 Du        
    632 ****       -11.2500  -4.7500  18.0000 Du        
    633 ****       -11.2500  -4.7500  18.2500 Du        
    634 ****       -11.2500  -4.5000  16.7500 Du        
    635 ****       -11.2500  -4.5000  17.0000 Du        
    636 ****       -11.2500  -4.5000  17.2500 Du        
    637 ****       -11.2500  -4.5000  17.5000 Du        
    638 ****       -11.2500  -4.5000  17.7500 Du        
    639 ****       -11.2500  -4.5000  18.0000 Du        
    640 ****       -11.2500  -4.5000  18.2500 Du        
    641 ****       -11.2500  -4.2500  16.7500 Du        
    642 ****       -11.2500  -4.2500  17.0000 Du        
    643 ****       -11.2500  -4.2500  17.2500 Du        
    644 ****       -11.2500  -4.2500  17.5000 Du        
    645 ****       -11.2500  -4.2500  17.7500 Du        
    646 ****       -11.2500  -4.2500  18.0000 Du        
    647 ****       -11.2500  -4.2500  18.2500 Du        
    648 ****       -11.2500  -4.0000  17.0000 Du        
    649 ****       -11.2500  -4.0000  17.2500 Du        
    650 ****       -11.2500  -4.0000  17.5000 Du        
    651 ****       -11.2500  -4.0000  17.7500 Du        
    652 ****       -11.2500  -4.0000  18.0000 Du        
    653 ****       -11.2500  -4.0000  18.2500 Du        
    654 ****       -11.2500  -3.7500  17.0000 Du        
    655 ****       -11.2500  -3.7500  17.2500 Du        
    656 ****       -11.2500  -3.7500  17.5000 Du        
    657 ****       -11.2500  -3.7500  17.7500 Du        
    658 ****       -11.2500  -3.7500  18.0000 Du        
    659 ****       -11.2500  -3.7500  18.2500 Du        
    660 ****       -11.2500  -3.0000  23.7500 Du        
    661 ****       -11.2500  -2.7500  23.5000 Du        
    662 ****       -11.2500  -2.7500  23.7500 Du        
    663 ****       -11.2500  -2.5000  23.2500 Du        
    664 ****       -11.2500  -2.5000  23.5000 Du        
    665 ****       -11.2500  -2.5000  23.7500 Du        
    666 ****       -11.2500  -2.2500  22.7500 Du        
    667 ****       -11.2500  -2.2500  23.0000 Du        
    668 ****       -11.2500  -2.2500  23.2500 Du        
    669 ****       -11.2500  -2.2500  23.5000 Du        
    670 ****       -11.2500  -2.2500  23.7500 Du        
    671 ****       -11.2500  -2.0000  22.2500 Du        
    672 ****       -11.2500  -2.0000  22.5000 Du        
    673 ****       -11.2500  -2.0000  22.7500 Du        
    674 ****       -11.2500  -2.0000  23.0000 Du        
    675 ****       -11.2500  -2.0000  23.2500 Du        
    676 ****       -11.2500  -2.0000  23.5000 Du        
    677 ****       -11.2500  -2.0000  23.7500 Du        
    678 ****       -11.2500  -1.7500  21.7500 Du        
    679 ****       -11.2500  -1.7500  22.2500 Du        
    680 ****       -11.2500  -1.7500  22.5000 Du        
    681 ****       -11.2500  -1.7500  22.7500 Du        
    682 ****       -11.2500  -1.7500  23.0000 Du        
    683 ****       -11.2500  -1.7500  23.2500 Du        
    684 ****       -11.2500  -1.7500  23.5000 Du        
    685 ****       -11.0000  -9.0000  16.2500 Du        
    686 ****       -11.0000  -8.7500  15.7500 Du        
    687 ****       -11.0000  -8.7500  16.0000 Du        
    688 ****       -11.0000  -8.7500  16.2500 Du        
    689 ****       -11.0000  -8.7500  16.5000 Du        
    690 ****       -11.0000  -8.7500  16.7500 Du        
    691 ****       -11.0000  -8.5000  15.7500 Du        
    692 ****       -11.0000  -8.5000  16.0000 Du        
    693 ****       -11.0000  -8.5000  16.2500 Du        
    694 ****       -11.0000  -8.5000  16.5000 Du        
    695 ****       -11.0000  -8.5000  16.7500 Du        
    696 ****       -11.0000  -8.5000  17.0000 Du        
    697 ****       -11.0000  -8.2500  15.7500 Du        
    698 ****       -11.0000  -8.2500  16.0000 Du        
    699 ****       -11.0000  -8.2500  16.2500 Du        
    700 ****       -11.0000  -8.2500  16.5000 Du        
    701 ****       -11.0000  -8.2500  16.7500 Du        
    702 ****       -11.0000  -8.2500  17.0000 Du        
    703 ****       -11.0000  -8.2500  17.2500 Du        
    704 ****       -11.0000  -8.0000  15.7500 Du        
    705 ****       -11.0000  -8.0000  16.0000 Du        
    706 ****       -11.0000  -8.0000  16.2500 Du        
    707 ****       -11.0000  -8.0000  16.5000 Du        
    708 ****       -11.0000  -8.0000  16.7500 Du        
    709 ****       -11.0000  -8.0000  17.0000 Du        
    710 ****       -11.0000  -8.0000  17.2500 Du        
    711 ****       -11.0000  -8.0000  17.5000 Du        
    712 ****       -11.0000  -8.0000  17.7500 Du        
    713 ****       -11.0000  -7.7500  16.0000 Du        
    714 ****       -11.0000  -7.7500  16.2500 Du        
    715 ****       -11.0000  -7.7500  16.5000 Du        
    716 ****       -11.0000  -7.7500  16.7500 Du        
    717 ****       -11.0000  -7.7500  17.0000 Du        
    718 ****       -11.0000  -7.7500  17.2500 Du        
    719 ****       -11.0000  -7.7500  17.5000 Du        
    720 ****       -11.0000  -7.7500  17.7500 Du        
    721 ****       -11.0000  -7.7500  18.0000 Du        
    722 ****       -11.0000  -7.5000  16.0000 Du        
    723 ****       -11.0000  -7.5000  16.2500 Du        
    724 ****       -11.0000  -7.5000  16.5000 Du        
    725 ****       -11.0000  -7.5000  16.7500 Du        
    726 ****       -11.0000  -7.5000  17.0000 Du        
    727 ****       -11.0000  -7.5000  17.2500 Du        
    728 ****       -11.0000  -7.5000  17.5000 Du        
    729 ****       -11.0000  -7.5000  17.7500 Du        
    730 ****       -11.0000  -7.5000  18.0000 Du        
    731 ****       -11.0000  -7.5000  18.2500 Du        
    732 ****       -11.0000  -7.2500  16.0000 Du        
    733 ****       -11.0000  -7.2500  16.2500 Du        
    734 ****       -11.0000  -7.2500  16.5000 Du        
    735 ****       -11.0000  -7.2500  16.7500 Du        
    736 ****       -11.0000  -7.2500  17.0000 Du        
    737 ****       -11.0000  -7.2500  17.2500 Du        
    738 ****       -11.0000  -7.2500  17.5000 Du        
    739 ****       -11.0000  -7.2500  17.7500 Du        
    740 ****       -11.0000  -7.2500  18.0000 Du        
    741 ****       -11.0000  -7.2500  18.2500 Du        
    742 ****       -11.0000  -7.0000  16.0000 Du        
    743 ****       -11.0000  -7.0000  16.2500 Du        
    744 ****       -11.0000  -7.0000  16.5000 Du        
    745 ****       -11.0000  -7.0000  16.7500 Du        
    746 ****       -11.0000  -7.0000  17.0000 Du        
    747 ****       -11.0000  -7.0000  17.2500 Du        
    748 ****       -11.0000  -7.0000  17.5000 Du        
    749 ****       -11.0000  -7.0000  17.7500 Du        
    750 ****       -11.0000  -7.0000  18.0000 Du        
    751 ****       -11.0000  -7.0000  18.2500 Du        
    752 ****       -11.0000  -7.0000  18.5000 Du        
    753 ****       -11.0000  -6.7500  16.0000 Du        
    754 ****       -11.0000  -6.7500  16.2500 Du        
    755 ****       -11.0000  -6.7500  16.5000 Du        
    756 ****       -11.0000  -6.7500  16.7500 Du        
    757 ****       -11.0000  -6.7500  17.0000 Du        
    758 ****       -11.0000  -6.7500  17.2500 Du        
    759 ****       -11.0000  -6.7500  17.5000 Du        
    760 ****       -11.0000  -6.7500  17.7500 Du        
    761 ****       -11.0000  -6.7500  18.0000 Du        
    762 ****       -11.0000  -6.7500  18.2500 Du        
    763 ****       -11.0000  -6.7500  18.5000 Du        
    764 ****       -11.0000  -6.5000  16.0000 Du        
    765 ****       -11.0000  -6.5000  16.2500 Du        
    766 ****       -11.0000  -6.5000  16.5000 Du        
    767 ****       -11.0000  -6.5000  16.7500 Du        
    768 ****       -11.0000  -6.5000  17.0000 Du        
    769 ****       -11.0000  -6.5000  17.2500 Du        
    770 ****       -11.0000  -6.5000  17.5000 Du        
    771 ****       -11.0000  -6.5000  17.7500 Du        
    772 ****       -11.0000  -6.5000  18.0000 Du        
    773 ****       -11.0000  -6.5000  18.2500 Du        
    774 ****       -11.0000  -6.5000  18.5000 Du        
    775 ****       -11.0000  -6.2500  16.0000 Du        
    776 ****       -11.0000  -6.2500  16.2500 Du        
    777 ****       -11.0000  -6.2500  16.5000 Du        
    778 ****       -11.0000  -6.2500  16.7500 Du        
    779 ****       -11.0000  -6.2500  17.0000 Du        
    780 ****       -11.0000  -6.2500  17.2500 Du        
    781 ****       -11.0000  -6.2500  17.5000 Du        
    782 ****       -11.0000  -6.2500  17.7500 Du        
    783 ****       -11.0000  -6.2500  18.0000 Du        
    784 ****       -11.0000  -6.2500  18.2500 Du        
    785 ****       -11.0000  -6.2500  18.5000 Du        
    786 ****       -11.0000  -6.0000  15.7500 Du        
    787 ****       -11.0000  -6.0000  16.0000 Du        
    788 ****       -11.0000  -6.0000  16.2500 Du        
    789 ****       -11.0000  -6.0000  16.5000 Du        
    790 ****       -11.0000  -6.0000  16.7500 Du        
    791 ****       -11.0000  -6.0000  17.0000 Du        
    792 ****       -11.0000  -6.0000  17.2500 Du        
    793 ****       -11.0000  -6.0000  17.5000 Du        
    794 ****       -11.0000  -6.0000  17.7500 Du        
    795 ****       -11.0000  -6.0000  18.0000 Du        
    796 ****       -11.0000  -6.0000  18.2500 Du        
    797 ****       -11.0000  -6.0000  18.5000 Du        
    798 ****       -11.0000  -5.7500  15.7500 Du        
    799 ****       -11.0000  -5.7500  16.0000 Du        
    800 ****       -11.0000  -5.7500  16.2500 Du        
    801 ****       -11.0000  -5.7500  16.5000 Du        
    802 ****       -11.0000  -5.7500  16.7500 Du        
    803 ****       -11.0000  -5.7500  17.0000 Du        
    804 ****       -11.0000  -5.7500  17.2500 Du        
    805 ****       -11.0000  -5.7500  17.5000 Du        
    806 ****       -11.0000  -5.7500  17.7500 Du        
    807 ****       -11.0000  -5.7500  18.0000 Du        
    808 ****       -11.0000  -5.7500  18.2500 Du        
    809 ****       -11.0000  -5.7500  18.5000 Du        
    810 ****       -11.0000  -5.5000  16.0000 Du        
    811 ****       -11.0000  -5.5000  16.5000 Du        
    812 ****       -11.0000  -5.5000  16.7500 Du        
    813 ****       -11.0000  -5.5000  17.0000 Du        
    814 ****       -11.0000  -5.5000  17.2500 Du        
    815 ****       -11.0000  -5.5000  17.5000 Du        
    816 ****       -11.0000  -5.5000  17.7500 Du        
    817 ****       -11.0000  -5.5000  18.0000 Du        
    818 ****       -11.0000  -5.5000  18.2500 Du        
    819 ****       -11.0000  -5.2500  16.0000 Du        
    820 ****       -11.0000  -5.2500  16.2500 Du        
    821 ****       -11.0000  -5.2500  16.5000 Du        
    822 ****       -11.0000  -5.2500  16.7500 Du        
    823 ****       -11.0000  -5.2500  17.0000 Du        
    824 ****       -11.0000  -5.2500  17.2500 Du        
    825 ****       -11.0000  -5.2500  17.5000 Du        
    826 ****       -11.0000  -5.2500  17.7500 Du        
    827 ****       -11.0000  -5.2500  18.0000 Du        
    828 ****       -11.0000  -5.2500  18.2500 Du        
    829 ****       -11.0000  -5.0000  16.0000 Du        
    830 ****       -11.0000  -5.0000  16.2500 Du        
    831 ****       -11.0000  -5.0000  16.5000 Du        
    832 ****       -11.0000  -5.0000  16.7500 Du        
    833 ****       -11.0000  -5.0000  17.0000 Du        
    834 ****       -11.0000  -5.0000  17.2500 Du        
    835 ****       -11.0000  -5.0000  17.5000 Du        
    836 ****       -11.0000  -5.0000  17.7500 Du        
    837 ****       -11.0000  -5.0000  18.0000 Du        
    838 ****       -11.0000  -5.0000  18.2500 Du        
    839 ****       -11.0000  -5.0000  18.5000 Du        
    840 ****       -11.0000  -4.7500  16.0000 Du        
    841 ****       -11.0000  -4.7500  16.5000 Du        
    842 ****       -11.0000  -4.7500  16.7500 Du        
    843 ****       -11.0000  -4.7500  17.0000 Du        
    844 ****       -11.0000  -4.7500  17.2500 Du        
    845 ****       -11.0000  -4.7500  17.5000 Du        
    846 ****       -11.0000  -4.7500  17.7500 Du        
    847 ****       -11.0000  -4.7500  18.0000 Du        
    848 ****       -11.0000  -4.7500  18.2500 Du        
    849 ****       -11.0000  -4.5000  16.7500 Du        
    850 ****       -11.0000  -4.5000  17.0000 Du        
    851 ****       -11.0000  -4.5000  17.2500 Du        
    852 ****       -11.0000  -4.5000  17.5000 Du        
    853 ****       -11.0000  -4.5000  17.7500 Du        
    854 ****       -11.0000  -4.5000  18.0000 Du        
    855 ****       -11.0000  -4.5000  18.2500 Du        
    856 ****       -11.0000  -4.2500  17.0000 Du        
    857 ****       -11.0000  -4.2500  17.2500 Du        
    858 ****       -11.0000  -4.2500  17.5000 Du        
    859 ****       -11.0000  -4.2500  17.7500 Du        
    860 ****       -11.0000  -4.2500  18.0000 Du        
    861 ****       -11.0000  -4.2500  18.2500 Du        
    862 ****       -11.0000  -4.0000  17.0000 Du        
    863 ****       -11.0000  -4.0000  17.2500 Du        
    864 ****       -11.0000  -4.0000  17.5000 Du        
    865 ****       -11.0000  -4.0000  17.7500 Du        
    866 ****       -11.0000  -4.0000  18.0000 Du        
    867 ****       -11.0000  -4.0000  18.2500 Du        
    868 ****       -11.0000  -3.7500  18.2500 Du        
    869 ****       -11.0000  -2.7500  23.5000 Du        
    870 ****       -11.0000  -2.7500  23.7500 Du        
    871 ****       -11.0000  -2.5000  23.2500 Du        
    872 ****       -11.0000  -2.5000  23.5000 Du        
    873 ****       -11.0000  -2.5000  23.7500 Du        
    874 ****       -11.0000  -2.2500  23.0000 Du        
    875 ****       -11.0000  -2.2500  23.2500 Du        
    876 ****       -11.0000  -2.2500  23.5000 Du        
    877 ****       -11.0000  -2.2500  23.7500 Du        
    878 ****       -11.0000  -2.0000  22.7500 Du        
    879 ****       -11.0000  -2.0000  23.0000 Du        
    880 ****       -11.0000  -2.0000  23.2500 Du        
    881 ****       -11.0000  -2.0000  23.5000 Du        
    882 ****       -11.0000  -2.0000  23.7500 Du        
    883 ****       -11.0000  -1.7500  22.7500 Du        
    884 ****       -11.0000  -1.7500  23.0000 Du        
    885 ****       -11.0000  -1.7500  23.2500 Du        
    886 ****       -11.0000  -1.7500  23.5000 Du        
    887 ****       -11.0000  -1.7500  23.7500 Du        
    888 ****       -10.7500  -9.0000  15.5000 Du        
    889 ****       -10.7500  -9.0000  15.7500 Du        
    890 ****       -10.7500  -9.0000  16.0000 Du        
    891 ****       -10.7500  -9.0000  16.2500 Du        
    892 ****       -10.7500  -9.0000  16.5000 Du        
    893 ****       -10.7500  -8.7500  15.5000 Du        
    894 ****       -10.7500  -8.7500  15.7500 Du        
    895 ****       -10.7500  -8.7500  16.0000 Du        
    896 ****       -10.7500  -8.7500  16.2500 Du        
    897 ****       -10.7500  -8.7500  16.5000 Du        
    898 ****       -10.7500  -8.7500  16.7500 Du        
    899 ****       -10.7500  -8.7500  17.0000 Du        
    900 ****       -10.7500  -8.5000  15.7500 Du        
    901 ****       -10.7500  -8.5000  16.0000 Du        
    902 ****       -10.7500  -8.5000  16.2500 Du        
    903 ****       -10.7500  -8.5000  16.5000 Du        
    904 ****       -10.7500  -8.5000  16.7500 Du        
    905 ****       -10.7500  -8.5000  17.0000 Du        
    906 ****       -10.7500  -8.5000  17.2500 Du        
    907 ****       -10.7500  -8.2500  15.7500 Du        
    908 ****       -10.7500  -8.2500  16.0000 Du        
    909 ****       -10.7500  -8.2500  16.2500 Du        
    910 ****       -10.7500  -8.2500  16.5000 Du        
    911 ****       -10.7500  -8.2500  16.7500 Du        
    912 ****       -10.7500  -8.2500  17.0000 Du        
    913 ****       -10.7500  -8.2500  17.2500 Du        
    914 ****       -10.7500  -8.2500  17.5000 Du        
    915 ****       -10.7500  -8.0000  15.7500 Du        
    916 ****       -10.7500  -8.0000  16.0000 Du        
    917 ****       -10.7500  -8.0000  16.2500 Du        
    918 ****       -10.7500  -8.0000  16.5000 Du        
    919 ****       -10.7500  -8.0000  16.7500 Du        
    920 ****       -10.7500  -8.0000  17.0000 Du        
    921 ****       -10.7500  -8.0000  17.2500 Du        
    922 ****       -10.7500  -8.0000  17.5000 Du        
    923 ****       -10.7500  -8.0000  17.7500 Du        
    924 ****       -10.7500  -8.0000  18.0000 Du        
    925 ****       -10.7500  -7.7500  15.7500 Du        
    926 ****       -10.7500  -7.7500  16.0000 Du        
    927 ****       -10.7500  -7.7500  16.2500 Du        
    928 ****       -10.7500  -7.7500  16.5000 Du        
    929 ****       -10.7500  -7.7500  16.7500 Du        
    930 ****       -10.7500  -7.7500  17.0000 Du        
    931 ****       -10.7500  -7.7500  17.2500 Du        
    932 ****       -10.7500  -7.7500  17.5000 Du        
    933 ****       -10.7500  -7.7500  17.7500 Du        
    934 ****       -10.7500  -7.7500  18.0000 Du        
    935 ****       -10.7500  -7.7500  18.2500 Du        
    936 ****       -10.7500  -7.5000  16.0000 Du        
    937 ****       -10.7500  -7.5000  16.2500 Du        
    938 ****       -10.7500  -7.5000  16.5000 Du        
    939 ****       -10.7500  -7.5000  16.7500 Du        
    940 ****       -10.7500  -7.5000  17.0000 Du        
    941 ****       -10.7500  -7.5000  17.2500 Du        
    942 ****       -10.7500  -7.5000  17.5000 Du        
    943 ****       -10.7500  -7.5000  17.7500 Du        
    944 ****       -10.7500  -7.5000  18.0000 Du        
    945 ****       -10.7500  -7.5000  18.2500 Du        
    946 ****       -10.7500  -7.2500  16.0000 Du        
    947 ****       -10.7500  -7.2500  16.2500 Du        
    948 ****       -10.7500  -7.2500  16.5000 Du        
    949 ****       -10.7500  -7.2500  16.7500 Du        
    950 ****       -10.7500  -7.2500  17.0000 Du        
    951 ****       -10.7500  -7.2500  17.2500 Du        
    952 ****       -10.7500  -7.2500  17.5000 Du        
    953 ****       -10.7500  -7.2500  17.7500 Du        
    954 ****       -10.7500  -7.2500  18.0000 Du        
    955 ****       -10.7500  -7.2500  18.2500 Du        
    956 ****       -10.7500  -7.2500  18.5000 Du        
    957 ****       -10.7500  -7.0000  16.0000 Du        
    958 ****       -10.7500  -7.0000  16.2500 Du        
    959 ****       -10.7500  -7.0000  16.5000 Du        
    960 ****       -10.7500  -7.0000  16.7500 Du        
    961 ****       -10.7500  -7.0000  17.0000 Du        
    962 ****       -10.7500  -7.0000  17.2500 Du        
    963 ****       -10.7500  -7.0000  17.5000 Du        
    964 ****       -10.7500  -7.0000  17.7500 Du        
    965 ****       -10.7500  -7.0000  18.0000 Du        
    966 ****       -10.7500  -7.0000  18.2500 Du        
    967 ****       -10.7500  -7.0000  18.5000 Du        
    968 ****       -10.7500  -6.7500  16.0000 Du        
    969 ****       -10.7500  -6.7500  16.2500 Du        
    970 ****       -10.7500  -6.7500  16.5000 Du        
    971 ****       -10.7500  -6.7500  16.7500 Du        
    972 ****       -10.7500  -6.7500  17.0000 Du        
    973 ****       -10.7500  -6.7500  17.2500 Du        
    974 ****       -10.7500  -6.7500  17.5000 Du        
    975 ****       -10.7500  -6.7500  17.7500 Du        
    976 ****       -10.7500  -6.7500  18.0000 Du        
    977 ****       -10.7500  -6.7500  18.2500 Du        
    978 ****       -10.7500  -6.7500  18.5000 Du        
    979 ****       -10.7500  -6.5000  16.0000 Du        
    980 ****       -10.7500  -6.5000  16.2500 Du        
    981 ****       -10.7500  -6.5000  16.5000 Du        
    982 ****       -10.7500  -6.5000  16.7500 Du        
    983 ****       -10.7500  -6.5000  17.0000 Du        
    984 ****       -10.7500  -6.5000  17.2500 Du        
    985 ****       -10.7500  -6.5000  17.5000 Du        
    986 ****       -10.7500  -6.5000  17.7500 Du        
    987 ****       -10.7500  -6.5000  18.0000 Du        
    988 ****       -10.7500  -6.5000  18.2500 Du        
    989 ****       -10.7500  -6.5000  18.5000 Du        
    990 ****       -10.7500  -6.2500  15.7500 Du        
    991 ****       -10.7500  -6.2500  16.0000 Du        
    992 ****       -10.7500  -6.2500  16.2500 Du        
    993 ****       -10.7500  -6.2500  16.5000 Du        
    994 ****       -10.7500  -6.2500  16.7500 Du        
    995 ****       -10.7500  -6.2500  17.0000 Du        
    996 ****       -10.7500  -6.2500  17.2500 Du        
    997 ****       -10.7500  -6.2500  17.5000 Du        
    998 ****       -10.7500  -6.2500  17.7500 Du        
    999 ****       -10.7500  -6.2500  18.0000 Du        
   1000 ****       -10.7500  -6.2500  18.2500 Du        
   1001 ****       -10.7500  -6.2500  18.5000 Du        
   1002 ****       -10.7500  -6.0000  15.7500 Du        
   1003 ****       -10.7500  -6.0000  16.0000 Du        
   1004 ****       -10.7500  -6.0000  16.2500 Du        
   1005 ****       -10.7500  -6.0000  16.5000 Du        
   1006 ****       -10.7500  -6.0000  16.7500 Du        
   1007 ****       -10.7500  -6.0000  17.0000 Du        
   1008 ****       -10.7500  -6.0000  17.2500 Du        
   1009 ****       -10.7500  -6.0000  17.5000 Du        
   1010 ****       -10.7500  -6.0000  17.7500 Du        
   1011 ****       -10.7500  -6.0000  18.0000 Du        
   1012 ****       -10.7500  -6.0000  18.2500 Du        
   1013 ****       -10.7500  -6.0000  18.5000 Du        
   1014 ****       -10.7500  -5.7500  15.7500 Du        
   1015 ****       -10.7500  -5.7500  16.0000 Du        
   1016 ****       -10.7500  -5.7500  16.2500 Du        
   1017 ****       -10.7500  -5.7500  16.5000 Du        
   1018 ****       -10.7500  -5.7500  16.7500 Du        
   1019 ****       -10.7500  -5.7500  17.0000 Du        
   1020 ****       -10.7500  -5.7500  17.2500 Du        
   1021 ****       -10.7500  -5.7500  17.5000 Du        
   1022 ****       -10.7500  -5.7500  17.7500 Du        
   1023 ****       -10.7500  -5.7500  18.0000 Du        
   1024 ****       -10.7500  -5.7500  18.2500 Du        
   1025 ****       -10.7500  -5.7500  18.5000 Du        
   1026 ****       -10.7500  -5.5000  16.0000 Du        
   1027 ****       -10.7500  -5.5000  16.2500 Du        
   1028 ****       -10.7500  -5.5000  16.5000 Du        
   1029 ****       -10.7500  -5.5000  16.7500 Du        
   1030 ****       -10.7500  -5.5000  17.0000 Du        
   1031 ****       -10.7500  -5.5000  17.2500 Du        
   1032 ****       -10.7500  -5.5000  17.5000 Du        
   1033 ****       -10.7500  -5.5000  17.7500 Du        
   1034 ****       -10.7500  -5.5000  18.0000 Du        
   1035 ****       -10.7500  -5.5000  18.2500 Du        
   1036 ****       -10.7500  -5.5000  18.5000 Du        
   1037 ****       -10.7500  -5.2500  15.7500 Du        
   1038 ****       -10.7500  -5.2500  16.0000 Du        
   1039 ****       -10.7500  -5.2500  16.2500 Du        
   1040 ****       -10.7500  -5.2500  16.5000 Du        
   1041 ****       -10.7500  -5.2500  16.7500 Du        
   1042 ****       -10.7500  -5.2500  17.0000 Du        
   1043 ****       -10.7500  -5.2500  17.2500 Du        
   1044 ****       -10.7500  -5.2500  17.5000 Du        
   1045 ****       -10.7500  -5.2500  17.7500 Du        
   1046 ****       -10.7500  -5.2500  18.0000 Du        
   1047 ****       -10.7500  -5.2500  18.2500 Du        
   1048 ****       -10.7500  -5.0000  15.7500 Du        
   1049 ****       -10.7500  -5.0000  16.0000 Du        
   1050 ****       -10.7500  -5.0000  16.2500 Du        
   1051 ****       -10.7500  -5.0000  16.5000 Du        
   1052 ****       -10.7500  -5.0000  16.7500 Du        
   1053 ****       -10.7500  -5.0000  17.0000 Du        
   1054 ****       -10.7500  -5.0000  17.2500 Du        
   1055 ****       -10.7500  -5.0000  17.5000 Du        
   1056 ****       -10.7500  -5.0000  17.7500 Du        
   1057 ****       -10.7500  -5.0000  18.0000 Du        
   1058 ****       -10.7500  -5.0000  18.2500 Du        
   1059 ****       -10.7500  -4.7500  15.7500 Du        
   1060 ****       -10.7500  -4.7500  16.0000 Du        
   1061 ****       -10.7500  -4.7500  16.5000 Du        
   1062 ****       -10.7500  -4.7500  16.7500 Du        
   1063 ****       -10.7500  -4.7500  17.0000 Du        
   1064 ****       -10.7500  -4.7500  17.2500 Du        
   1065 ****       -10.7500  -4.7500  17.5000 Du        
   1066 ****       -10.7500  -4.7500  17.7500 Du        
   1067 ****       -10.7500  -4.7500  18.0000 Du        
   1068 ****       -10.7500  -4.7500  18.2500 Du        
   1069 ****       -10.7500  -4.5000  18.2500 Du        
   1070 ****       -10.7500  -2.7500  23.5000 Du        
   1071 ****       -10.7500  -2.7500  23.7500 Du        
   1072 ****       -10.7500  -2.5000  23.5000 Du        
   1073 ****       -10.7500  -2.5000  23.7500 Du        
   1074 ****       -10.7500  -2.2500  23.2500 Du        
   1075 ****       -10.7500  -2.2500  23.5000 Du        
   1076 ****       -10.7500  -2.2500  23.7500 Du        
   1077 ****       -10.7500  -2.0000  23.0000 Du        
   1078 ****       -10.7500  -2.0000  23.2500 Du        
   1079 ****       -10.7500  -2.0000  23.5000 Du        
   1080 ****       -10.7500  -2.0000  23.7500 Du        
   1081 ****       -10.7500  -1.7500  23.0000 Du        
   1082 ****       -10.7500  -1.7500  23.2500 Du        
   1083 ****       -10.7500  -1.7500  23.5000 Du        
   1084 ****       -10.7500  -1.7500  23.7500 Du        
   1085 ****       -10.7500  -1.5000  23.5000 Du        
   1086 ****       -10.5000  -9.2500  15.5000 Du        
   1087 ****       -10.5000  -9.2500  15.7500 Du        
   1088 ****       -10.5000  -9.2500  16.0000 Du        
   1089 ****       -10.5000  -9.2500  16.2500 Du        
   1090 ****       -10.5000  -9.2500  16.5000 Du        
   1091 ****       -10.5000  -9.0000  15.2500 Du        
   1092 ****       -10.5000  -9.0000  15.5000 Du        
   1093 ****       -10.5000  -9.0000  15.7500 Du        
   1094 ****       -10.5000  -9.0000  16.0000 Du        
   1095 ****       -10.5000  -9.0000  16.2500 Du        
   1096 ****       -10.5000  -9.0000  16.5000 Du        
   1097 ****       -10.5000  -9.0000  16.7500 Du        
   1098 ****       -10.5000  -8.7500  15.5000 Du        
   1099 ****       -10.5000  -8.7500  15.7500 Du        
   1100 ****       -10.5000  -8.7500  16.0000 Du        
   1101 ****       -10.5000  -8.7500  16.2500 Du        
   1102 ****       -10.5000  -8.7500  16.5000 Du        
   1103 ****       -10.5000  -8.7500  16.7500 Du        
   1104 ****       -10.5000  -8.7500  17.0000 Du        
   1105 ****       -10.5000  -8.5000  15.5000 Du        
   1106 ****       -10.5000  -8.5000  15.7500 Du        
   1107 ****       -10.5000  -8.5000  16.0000 Du        
   1108 ****       -10.5000  -8.5000  16.2500 Du        
   1109 ****       -10.5000  -8.5000  16.5000 Du        
   1110 ****       -10.5000  -8.5000  16.7500 Du        
   1111 ****       -10.5000  -8.5000  17.0000 Du        
   1112 ****       -10.5000  -8.5000  17.2500 Du        
   1113 ****       -10.5000  -8.2500  15.5000 Du        
   1114 ****       -10.5000  -8.2500  15.7500 Du        
   1115 ****       -10.5000  -8.2500  16.0000 Du        
   1116 ****       -10.5000  -8.2500  16.2500 Du        
   1117 ****       -10.5000  -8.2500  16.5000 Du        
   1118 ****       -10.5000  -8.2500  16.7500 Du        
   1119 ****       -10.5000  -8.2500  17.0000 Du        
   1120 ****       -10.5000  -8.2500  17.2500 Du        
   1121 ****       -10.5000  -8.2500  17.5000 Du        
   1122 ****       -10.5000  -8.2500  17.7500 Du        
   1123 ****       -10.5000  -8.0000  15.7500 Du        
   1124 ****       -10.5000  -8.0000  16.0000 Du        
   1125 ****       -10.5000  -8.0000  16.2500 Du        
   1126 ****       -10.5000  -8.0000  16.5000 Du        
   1127 ****       -10.5000  -8.0000  16.7500 Du        
   1128 ****       -10.5000  -8.0000  17.0000 Du        
   1129 ****       -10.5000  -8.0000  17.2500 Du        
   1130 ****       -10.5000  -8.0000  17.5000 Du        
   1131 ****       -10.5000  -8.0000  17.7500 Du        
   1132 ****       -10.5000  -8.0000  18.0000 Du        
   1133 ****       -10.5000  -8.0000  18.2500 Du        
   1134 ****       -10.5000  -7.7500  15.7500 Du        
   1135 ****       -10.5000  -7.7500  16.0000 Du        
   1136 ****       -10.5000  -7.7500  16.2500 Du        
   1137 ****       -10.5000  -7.7500  16.5000 Du        
   1138 ****       -10.5000  -7.7500  16.7500 Du        
   1139 ****       -10.5000  -7.7500  17.0000 Du        
   1140 ****       -10.5000  -7.7500  17.2500 Du        
   1141 ****       -10.5000  -7.7500  17.5000 Du        
   1142 ****       -10.5000  -7.7500  17.7500 Du        
   1143 ****       -10.5000  -7.7500  18.0000 Du        
   1144 ****       -10.5000  -7.7500  18.2500 Du        
   1145 ****       -10.5000  -7.5000  16.0000 Du        
   1146 ****       -10.5000  -7.5000  16.2500 Du        
   1147 ****       -10.5000  -7.5000  16.5000 Du        
   1148 ****       -10.5000  -7.5000  16.7500 Du        
   1149 ****       -10.5000  -7.5000  17.0000 Du        
   1150 ****       -10.5000  -7.5000  17.2500 Du        
   1151 ****       -10.5000  -7.5000  17.5000 Du        
   1152 ****       -10.5000  -7.5000  17.7500 Du        
   1153 ****       -10.5000  -7.5000  18.0000 Du        
   1154 ****       -10.5000  -7.5000  18.2500 Du        
   1155 ****       -10.5000  -7.2500  16.0000 Du        
   1156 ****       -10.5000  -7.2500  16.2500 Du        
   1157 ****       -10.5000  -7.2500  16.5000 Du        
   1158 ****       -10.5000  -7.2500  16.7500 Du        
   1159 ****       -10.5000  -7.2500  17.0000 Du        
   1160 ****       -10.5000  -7.2500  17.2500 Du        
   1161 ****       -10.5000  -7.2500  17.5000 Du        
   1162 ****       -10.5000  -7.2500  17.7500 Du        
   1163 ****       -10.5000  -7.2500  18.0000 Du        
   1164 ****       -10.5000  -7.2500  18.2500 Du        
   1165 ****       -10.5000  -7.2500  18.5000 Du        
   1166 ****       -10.5000  -7.0000  16.0000 Du        
   1167 ****       -10.5000  -7.0000  16.2500 Du        
   1168 ****       -10.5000  -7.0000  16.5000 Du        
   1169 ****       -10.5000  -7.0000  16.7500 Du        
   1170 ****       -10.5000  -7.0000  17.0000 Du        
   1171 ****       -10.5000  -7.0000  17.2500 Du        
   1172 ****       -10.5000  -7.0000  17.5000 Du        
   1173 ****       -10.5000  -7.0000  17.7500 Du        
   1174 ****       -10.5000  -7.0000  18.0000 Du        
   1175 ****       -10.5000  -7.0000  18.2500 Du        
   1176 ****       -10.5000  -7.0000  18.5000 Du        
   1177 ****       -10.5000  -6.7500  15.7500 Du        
   1178 ****       -10.5000  -6.7500  16.0000 Du        
   1179 ****       -10.5000  -6.7500  16.2500 Du        
   1180 ****       -10.5000  -6.7500  16.5000 Du        
   1181 ****       -10.5000  -6.7500  16.7500 Du        
   1182 ****       -10.5000  -6.7500  17.0000 Du        
   1183 ****       -10.5000  -6.7500  17.2500 Du        
   1184 ****       -10.5000  -6.7500  17.5000 Du        
   1185 ****       -10.5000  -6.7500  17.7500 Du        
   1186 ****       -10.5000  -6.7500  18.0000 Du        
   1187 ****       -10.5000  -6.7500  18.2500 Du        
   1188 ****       -10.5000  -6.7500  18.5000 Du        
   1189 ****       -10.5000  -6.5000  16.0000 Du        
   1190 ****       -10.5000  -6.5000  16.2500 Du        
   1191 ****       -10.5000  -6.5000  16.5000 Du        
   1192 ****       -10.5000  -6.5000  16.7500 Du        
   1193 ****       -10.5000  -6.5000  17.0000 Du        
   1194 ****       -10.5000  -6.5000  17.2500 Du        
   1195 ****       -10.5000  -6.5000  17.5000 Du        
   1196 ****       -10.5000  -6.5000  17.7500 Du        
   1197 ****       -10.5000  -6.5000  18.0000 Du        
   1198 ****       -10.5000  -6.5000  18.2500 Du        
   1199 ****       -10.5000  -6.5000  18.5000 Du        
   1200 ****       -10.5000  -6.2500  16.0000 Du        
   1201 ****       -10.5000  -6.2500  16.2500 Du        
   1202 ****       -10.5000  -6.2500  16.5000 Du        
   1203 ****       -10.5000  -6.2500  16.7500 Du        
   1204 ****       -10.5000  -6.2500  17.0000 Du        
   1205 ****       -10.5000  -6.2500  17.2500 Du        
   1206 ****       -10.5000  -6.2500  17.5000 Du        
   1207 ****       -10.5000  -6.2500  17.7500 Du        
   1208 ****       -10.5000  -6.2500  18.0000 Du        
   1209 ****       -10.5000  -6.2500  18.2500 Du        
   1210 ****       -10.5000  -6.2500  18.5000 Du        
   1211 ****       -10.5000  -6.0000  16.0000 Du        
   1212 ****       -10.5000  -6.0000  16.2500 Du        
   1213 ****       -10.5000  -6.0000  16.5000 Du        
   1214 ****       -10.5000  -6.0000  16.7500 Du        
   1215 ****       -10.5000  -6.0000  17.0000 Du        
   1216 ****       -10.5000  -6.0000  17.2500 Du        
   1217 ****       -10.5000  -6.0000  17.5000 Du        
   1218 ****       -10.5000  -6.0000  17.7500 Du        
   1219 ****       -10.5000  -6.0000  18.0000 Du        
   1220 ****       -10.5000  -6.0000  18.2500 Du        
   1221 ****       -10.5000  -6.0000  18.5000 Du        
   1222 ****       -10.5000  -5.7500  15.7500 Du        
   1223 ****       -10.5000  -5.7500  16.0000 Du        
   1224 ****       -10.5000  -5.7500  16.2500 Du        
   1225 ****       -10.5000  -5.7500  16.5000 Du        
   1226 ****       -10.5000  -5.7500  16.7500 Du        
   1227 ****       -10.5000  -5.7500  17.0000 Du        
   1228 ****       -10.5000  -5.7500  17.2500 Du        
   1229 ****       -10.5000  -5.7500  17.5000 Du        
   1230 ****       -10.5000  -5.7500  17.7500 Du        
   1231 ****       -10.5000  -5.7500  18.0000 Du        
   1232 ****       -10.5000  -5.7500  18.2500 Du        
   1233 ****       -10.5000  -5.5000  16.5000 Du        
   1234 ****       -10.5000  -5.5000  16.7500 Du        
   1235 ****       -10.5000  -5.5000  17.0000 Du        
   1236 ****       -10.5000  -5.5000  17.2500 Du        
   1237 ****       -10.5000  -5.5000  17.5000 Du        
   1238 ****       -10.5000  -5.5000  17.7500 Du        
   1239 ****       -10.5000  -5.5000  18.0000 Du        
   1240 ****       -10.5000  -5.2500  16.5000 Du        
   1241 ****       -10.5000  -5.2500  16.7500 Du        
   1242 ****       -10.5000  -5.2500  17.0000 Du        
   1243 ****       -10.5000  -5.2500  17.2500 Du        
   1244 ****       -10.5000  -5.2500  17.7500 Du        
   1245 ****       -10.5000  -5.0000  17.0000 Du        
   1246 ****       -10.5000  -2.7500  23.5000 Du        
   1247 ****       -10.5000  -2.7500  23.7500 Du        
   1248 ****       -10.5000  -2.5000  23.5000 Du        
   1249 ****       -10.5000  -2.5000  23.7500 Du        
   1250 ****       -10.5000  -2.2500  23.2500 Du        
   1251 ****       -10.5000  -2.2500  23.5000 Du        
   1252 ****       -10.5000  -2.2500  23.7500 Du        
   1253 ****       -10.5000  -2.0000  23.0000 Du        
   1254 ****       -10.5000  -2.0000  23.2500 Du        
   1255 ****       -10.5000  -2.0000  23.5000 Du        
   1256 ****       -10.5000  -2.0000  23.7500 Du        
   1257 ****       -10.5000  -1.7500  23.0000 Du        
   1258 ****       -10.5000  -1.7500  23.2500 Du        
   1259 ****       -10.5000  -1.7500  23.5000 Du        
   1260 ****       -10.5000  -1.7500  23.7500 Du        
   1261 ****       -10.5000  -1.5000  23.5000 Du        
   1262 ****       -10.5000  -1.5000  23.7500 Du        
   1263 ****       -10.2500  -9.7500  16.0000 Du        
   1264 ****       -10.2500  -9.7500  16.2500 Du        
   1265 ****       -10.2500  -9.5000  15.0000 Du        
   1266 ****       -10.2500  -9.5000  15.2500 Du        
   1267 ****       -10.2500  -9.5000  15.5000 Du        
   1268 ****       -10.2500  -9.5000  15.7500 Du        
   1269 ****       -10.2500  -9.5000  16.0000 Du        
   1270 ****       -10.2500  -9.5000  16.2500 Du        
   1271 ****       -10.2500  -9.5000  16.5000 Du        
   1272 ****       -10.2500  -9.2500  15.0000 Du        
   1273 ****       -10.2500  -9.2500  15.2500 Du        
   1274 ****       -10.2500  -9.2500  15.5000 Du        
   1275 ****       -10.2500  -9.2500  15.7500 Du        
   1276 ****       -10.2500  -9.2500  16.0000 Du        
   1277 ****       -10.2500  -9.2500  16.2500 Du        
   1278 ****       -10.2500  -9.2500  16.5000 Du        
   1279 ****       -10.2500  -9.2500  16.7500 Du        
   1280 ****       -10.2500  -9.0000  15.0000 Du        
   1281 ****       -10.2500  -9.0000  15.2500 Du        
   1282 ****       -10.2500  -9.0000  15.5000 Du        
   1283 ****       -10.2500  -9.0000  15.7500 Du        
   1284 ****       -10.2500  -9.0000  16.0000 Du        
   1285 ****       -10.2500  -9.0000  16.2500 Du        
   1286 ****       -10.2500  -9.0000  16.5000 Du        
   1287 ****       -10.2500  -9.0000  16.7500 Du        
   1288 ****       -10.2500  -9.0000  17.0000 Du        
   1289 ****       -10.2500  -8.7500  15.2500 Du        
   1290 ****       -10.2500  -8.7500  15.5000 Du        
   1291 ****       -10.2500  -8.7500  15.7500 Du        
   1292 ****       -10.2500  -8.7500  16.0000 Du        
   1293 ****       -10.2500  -8.7500  16.2500 Du        
   1294 ****       -10.2500  -8.7500  16.5000 Du        
   1295 ****       -10.2500  -8.7500  16.7500 Du        
   1296 ****       -10.2500  -8.7500  17.0000 Du        
   1297 ****       -10.2500  -8.7500  17.2500 Du        
   1298 ****       -10.2500  -8.5000  15.2500 Du        
   1299 ****       -10.2500  -8.5000  15.5000 Du        
   1300 ****       -10.2500  -8.5000  15.7500 Du        
   1301 ****       -10.2500  -8.5000  16.0000 Du        
   1302 ****       -10.2500  -8.5000  16.2500 Du        
   1303 ****       -10.2500  -8.5000  16.5000 Du        
   1304 ****       -10.2500  -8.5000  16.7500 Du        
   1305 ****       -10.2500  -8.5000  17.0000 Du        
   1306 ****       -10.2500  -8.5000  17.2500 Du        
   1307 ****       -10.2500  -8.5000  17.5000 Du        
   1308 ****       -10.2500  -8.5000  17.7500 Du        
   1309 ****       -10.2500  -8.2500  15.5000 Du        
   1310 ****       -10.2500  -8.2500  15.7500 Du        
   1311 ****       -10.2500  -8.2500  16.0000 Du        
   1312 ****       -10.2500  -8.2500  16.2500 Du        
   1313 ****       -10.2500  -8.2500  16.5000 Du        
   1314 ****       -10.2500  -8.2500  16.7500 Du        
   1315 ****       -10.2500  -8.2500  17.0000 Du        
   1316 ****       -10.2500  -8.2500  17.2500 Du        
   1317 ****       -10.2500  -8.2500  17.5000 Du        
   1318 ****       -10.2500  -8.2500  17.7500 Du        
   1319 ****       -10.2500  -8.2500  18.0000 Du        
   1320 ****       -10.2500  -8.0000  15.5000 Du        
   1321 ****       -10.2500  -8.0000  15.7500 Du        
   1322 ****       -10.2500  -8.0000  16.0000 Du        
   1323 ****       -10.2500  -8.0000  16.2500 Du        
   1324 ****       -10.2500  -8.0000  16.5000 Du        
   1325 ****       -10.2500  -8.0000  16.7500 Du        
   1326 ****       -10.2500  -8.0000  17.0000 Du        
   1327 ****       -10.2500  -8.0000  17.2500 Du        
   1328 ****       -10.2500  -8.0000  17.5000 Du        
   1329 ****       -10.2500  -8.0000  17.7500 Du        
   1330 ****       -10.2500  -8.0000  18.0000 Du        
   1331 ****       -10.2500  -8.0000  18.2500 Du        
   1332 ****       -10.2500  -8.0000  18.5000 Du        
   1333 ****       -10.2500  -7.7500  15.5000 Du        
   1334 ****       -10.2500  -7.7500  15.7500 Du        
   1335 ****       -10.2500  -7.7500  16.0000 Du        
   1336 ****       -10.2500  -7.7500  16.2500 Du        
   1337 ****       -10.2500  -7.7500  16.5000 Du        
   1338 ****       -10.2500  -7.7500  16.7500 Du        
   1339 ****       -10.2500  -7.7500  17.0000 Du        
   1340 ****       -10.2500  -7.7500  17.2500 Du        
   1341 ****       -10.2500  -7.7500  17.5000 Du        
   1342 ****       -10.2500  -7.7500  17.7500 Du        
   1343 ****       -10.2500  -7.7500  18.0000 Du        
   1344 ****       -10.2500  -7.7500  18.2500 Du        
   1345 ****       -10.2500  -7.7500  18.5000 Du        
   1346 ****       -10.2500  -7.5000  15.7500 Du        
   1347 ****       -10.2500  -7.5000  16.0000 Du        
   1348 ****       -10.2500  -7.5000  16.2500 Du        
   1349 ****       -10.2500  -7.5000  16.5000 Du        
   1350 ****       -10.2500  -7.5000  16.7500 Du        
   1351 ****       -10.2500  -7.5000  17.0000 Du        
   1352 ****       -10.2500  -7.5000  17.2500 Du        
   1353 ****       -10.2500  -7.5000  17.5000 Du        
   1354 ****       -10.2500  -7.5000  17.7500 Du        
   1355 ****       -10.2500  -7.5000  18.0000 Du        
   1356 ****       -10.2500  -7.5000  18.2500 Du        
   1357 ****       -10.2500  -7.5000  18.5000 Du        
   1358 ****       -10.2500  -7.2500  15.7500 Du        
   1359 ****       -10.2500  -7.2500  16.0000 Du        
   1360 ****       -10.2500  -7.2500  16.2500 Du        
   1361 ****       -10.2500  -7.2500  16.5000 Du        
   1362 ****       -10.2500  -7.2500  16.7500 Du        
   1363 ****       -10.2500  -7.2500  17.0000 Du        
   1364 ****       -10.2500  -7.2500  17.2500 Du        
   1365 ****       -10.2500  -7.2500  17.5000 Du        
   1366 ****       -10.2500  -7.2500  17.7500 Du        
   1367 ****       -10.2500  -7.2500  18.0000 Du        
   1368 ****       -10.2500  -7.2500  18.2500 Du        
   1369 ****       -10.2500  -7.2500  18.5000 Du        
   1370 ****       -10.2500  -7.0000  15.7500 Du        
   1371 ****       -10.2500  -7.0000  16.0000 Du        
   1372 ****       -10.2500  -7.0000  16.2500 Du        
   1373 ****       -10.2500  -7.0000  16.5000 Du        
   1374 ****       -10.2500  -7.0000  16.7500 Du        
   1375 ****       -10.2500  -7.0000  17.0000 Du        
   1376 ****       -10.2500  -7.0000  17.2500 Du        
   1377 ****       -10.2500  -7.0000  17.5000 Du        
   1378 ****       -10.2500  -7.0000  17.7500 Du        
   1379 ****       -10.2500  -7.0000  18.0000 Du        
   1380 ****       -10.2500  -7.0000  18.2500 Du        
   1381 ****       -10.2500  -7.0000  18.5000 Du        
   1382 ****       -10.2500  -7.0000  18.7500 Du        
   1383 ****       -10.2500  -6.7500  15.7500 Du        
   1384 ****       -10.2500  -6.7500  16.0000 Du        
   1385 ****       -10.2500  -6.7500  16.2500 Du        
   1386 ****       -10.2500  -6.7500  16.5000 Du        
   1387 ****       -10.2500  -6.7500  16.7500 Du        
   1388 ****       -10.2500  -6.7500  17.0000 Du        
   1389 ****       -10.2500  -6.7500  17.2500 Du        
   1390 ****       -10.2500  -6.7500  17.5000 Du        
   1391 ****       -10.2500  -6.7500  17.7500 Du        
   1392 ****       -10.2500  -6.7500  18.0000 Du        
   1393 ****       -10.2500  -6.7500  18.2500 Du        
   1394 ****       -10.2500  -6.7500  18.5000 Du        
   1395 ****       -10.2500  -6.7500  18.7500 Du        
   1396 ****       -10.2500  -6.5000  15.7500 Du        
   1397 ****       -10.2500  -6.5000  16.0000 Du        
   1398 ****       -10.2500  -6.5000  16.2500 Du        
   1399 ****       -10.2500  -6.5000  16.5000 Du        
   1400 ****       -10.2500  -6.5000  16.7500 Du        
   1401 ****       -10.2500  -6.5000  17.0000 Du        
   1402 ****       -10.2500  -6.5000  17.2500 Du        
   1403 ****       -10.2500  -6.5000  17.5000 Du        
   1404 ****       -10.2500  -6.5000  17.7500 Du        
   1405 ****       -10.2500  -6.5000  18.0000 Du        
   1406 ****       -10.2500  -6.5000  18.2500 Du        
   1407 ****       -10.2500  -6.5000  18.5000 Du        
   1408 ****       -10.2500  -6.5000  18.7500 Du        
   1409 ****       -10.2500  -6.2500  15.7500 Du        
   1410 ****       -10.2500  -6.2500  16.0000 Du        
   1411 ****       -10.2500  -6.2500  16.2500 Du        
   1412 ****       -10.2500  -6.2500  16.5000 Du        
   1413 ****       -10.2500  -6.2500  16.7500 Du        
   1414 ****       -10.2500  -6.2500  17.0000 Du        
   1415 ****       -10.2500  -6.2500  17.2500 Du        
   1416 ****       -10.2500  -6.2500  17.5000 Du        
   1417 ****       -10.2500  -6.2500  17.7500 Du        
   1418 ****       -10.2500  -6.2500  18.0000 Du        
   1419 ****       -10.2500  -6.2500  18.2500 Du        
   1420 ****       -10.2500  -6.2500  18.5000 Du        
   1421 ****       -10.2500  -6.2500  18.7500 Du        
   1422 ****       -10.2500  -6.0000  15.7500 Du        
   1423 ****       -10.2500  -6.0000  16.0000 Du        
   1424 ****       -10.2500  -6.0000  16.2500 Du        
   1425 ****       -10.2500  -6.0000  16.5000 Du        
   1426 ****       -10.2500  -6.0000  16.7500 Du        
   1427 ****       -10.2500  -6.0000  17.0000 Du        
   1428 ****       -10.2500  -6.0000  17.2500 Du        
   1429 ****       -10.2500  -6.0000  17.5000 Du        
   1430 ****       -10.2500  -6.0000  17.7500 Du        
   1431 ****       -10.2500  -6.0000  18.0000 Du        
   1432 ****       -10.2500  -6.0000  18.2500 Du        
   1433 ****       -10.2500  -6.0000  18.5000 Du        
   1434 ****       -10.2500  -6.0000  18.7500 Du        
   1435 ****       -10.2500  -5.7500  15.7500 Du        
   1436 ****       -10.2500  -5.7500  16.0000 Du        
   1437 ****       -10.2500  -5.7500  16.2500 Du        
   1438 ****       -10.2500  -5.7500  16.5000 Du        
   1439 ****       -10.2500  -5.7500  16.7500 Du        
   1440 ****       -10.2500  -5.7500  17.0000 Du        
   1441 ****       -10.2500  -5.7500  17.2500 Du        
   1442 ****       -10.2500  -5.7500  17.5000 Du        
   1443 ****       -10.2500  -5.7500  17.7500 Du        
   1444 ****       -10.2500  -5.7500  18.0000 Du        
   1445 ****       -10.2500  -5.7500  18.2500 Du        
   1446 ****       -10.2500  -5.7500  18.5000 Du        
   1447 ****       -10.2500  -5.5000  16.5000 Du        
   1448 ****       -10.2500  -5.5000  16.7500 Du        
   1449 ****       -10.2500  -5.5000  17.0000 Du        
   1450 ****       -10.2500  -5.5000  17.2500 Du        
   1451 ****       -10.2500  -5.5000  17.5000 Du        
   1452 ****       -10.2500  -5.5000  17.7500 Du        
   1453 ****       -10.2500  -5.5000  18.0000 Du        
   1454 ****       -10.2500  -5.5000  18.2500 Du        
   1455 ****       -10.2500  -5.2500  15.2500 Du        
   1456 ****       -10.2500  -5.2500  16.5000 Du        
   1457 ****       -10.2500  -5.2500  16.7500 Du        
   1458 ****       -10.2500  -5.2500  17.0000 Du        
   1459 ****       -10.2500  -5.2500  17.2500 Du        
   1460 ****       -10.2500  -5.2500  17.7500 Du        
   1461 ****       -10.2500  -5.2500  18.0000 Du        
   1462 ****       -10.2500  -5.2500  18.2500 Du        
   1463 ****       -10.2500  -5.0000  14.7500 Du        
   1464 ****       -10.2500  -5.0000  15.0000 Du        
   1465 ****       -10.2500  -5.0000  15.2500 Du        
   1466 ****       -10.2500  -4.7500  14.5000 Du        
   1467 ****       -10.2500  -4.7500  14.7500 Du        
   1468 ****       -10.2500  -4.7500  15.0000 Du        
   1469 ****       -10.2500  -4.5000  14.2500 Du        
   1470 ****       -10.2500  -4.5000  14.7500 Du        
   1471 ****       -10.2500  -4.2500  14.0000 Du        
   1472 ****       -10.2500  -4.2500  14.2500 Du        
   1473 ****       -10.2500  -4.2500  14.7500 Du        
   1474 ****       -10.2500  -4.0000  14.0000 Du        
   1475 ****       -10.2500  -4.0000  14.2500 Du        
   1476 ****       -10.2500  -3.7500  14.0000 Du        
   1477 ****       -10.2500  -3.7500  14.2500 Du        
   1478 ****       -10.2500  -3.0000  23.7500 Du        
   1479 ****       -10.2500  -2.7500  23.5000 Du        
   1480 ****       -10.2500  -2.7500  23.7500 Du        
   1481 ****       -10.2500  -2.5000  23.5000 Du        
   1482 ****       -10.2500  -2.5000  23.7500 Du        
   1483 ****       -10.2500  -2.2500  23.0000 Du        
   1484 ****       -10.2500  -2.2500  23.2500 Du        
   1485 ****       -10.2500  -2.2500  23.5000 Du        
   1486 ****       -10.2500  -2.2500  23.7500 Du        
   1487 ****       -10.2500  -2.0000  22.7500 Du        
   1488 ****       -10.2500  -2.0000  23.0000 Du        
   1489 ****       -10.2500  -2.0000  23.2500 Du        
   1490 ****       -10.2500  -2.0000  23.5000 Du        
   1491 ****       -10.2500  -2.0000  23.7500 Du        
   1492 ****       -10.2500  -1.7500  23.0000 Du        
   1493 ****       -10.2500  -1.7500  23.2500 Du        
   1494 ****       -10.2500  -1.7500  23.5000 Du        
   1495 ****       -10.2500  -1.7500  23.7500 Du        
   1496 ****       -10.2500  -1.5000  23.5000 Du        
   1497 ****       -10.2500  -1.5000  23.7500 Du        
   1498 ****       -10.2500  -1.2500  23.5000 Du        
   1499 ****       -10.2500  -1.2500  23.7500 Du        
   1500 ****       -10.0000 -10.0000  15.0000 Du        
   1501 ****       -10.0000 -10.0000  15.2500 Du        
   1502 ****       -10.0000 -10.0000  15.5000 Du        
   1503 ****       -10.0000 -10.0000  15.7500 Du        
   1504 ****       -10.0000 -10.0000  16.0000 Du        
   1505 ****       -10.0000 -10.0000  16.2500 Du        
   1506 ****       -10.0000 -10.0000  16.5000 Du        
   1507 ****       -10.0000 -10.0000  16.7500 Du        
   1508 ****       -10.0000  -9.7500  14.2500 Du        
   1509 ****       -10.0000  -9.7500  14.5000 Du        
   1510 ****       -10.0000  -9.7500  14.7500 Du        
   1511 ****       -10.0000  -9.7500  15.0000 Du        
   1512 ****       -10.0000  -9.7500  15.2500 Du        
   1513 ****       -10.0000  -9.7500  15.5000 Du        
   1514 ****       -10.0000  -9.7500  15.7500 Du        
   1515 ****       -10.0000  -9.7500  16.0000 Du        
   1516 ****       -10.0000  -9.7500  16.2500 Du        
   1517 ****       -10.0000  -9.7500  16.5000 Du        
   1518 ****       -10.0000  -9.7500  16.7500 Du        
   1519 ****       -10.0000  -9.5000  14.5000 Du        
   1520 ****       -10.0000  -9.5000  14.7500 Du        
   1521 ****       -10.0000  -9.5000  15.0000 Du        
   1522 ****       -10.0000  -9.5000  15.2500 Du        
   1523 ****       -10.0000  -9.5000  15.5000 Du        
   1524 ****       -10.0000  -9.5000  15.7500 Du        
   1525 ****       -10.0000  -9.5000  16.0000 Du        
   1526 ****       -10.0000  -9.5000  16.2500 Du        
   1527 ****       -10.0000  -9.5000  16.5000 Du        
   1528 ****       -10.0000  -9.5000  16.7500 Du        
   1529 ****       -10.0000  -9.5000  17.0000 Du        
   1530 ****       -10.0000  -9.2500  14.5000 Du        
   1531 ****       -10.0000  -9.2500  14.7500 Du        
   1532 ****       -10.0000  -9.2500  15.0000 Du        
   1533 ****       -10.0000  -9.2500  15.2500 Du        
   1534 ****       -10.0000  -9.2500  15.5000 Du        
   1535 ****       -10.0000  -9.2500  15.7500 Du        
   1536 ****       -10.0000  -9.2500  16.0000 Du        
   1537 ****       -10.0000  -9.2500  16.2500 Du        
   1538 ****       -10.0000  -9.2500  16.5000 Du        
   1539 ****       -10.0000  -9.2500  16.7500 Du        
   1540 ****       -10.0000  -9.2500  17.0000 Du        
   1541 ****       -10.0000  -9.0000  14.7500 Du        
   1542 ****       -10.0000  -9.0000  15.0000 Du        
   1543 ****       -10.0000  -9.0000  15.2500 Du        
   1544 ****       -10.0000  -9.0000  15.5000 Du        
   1545 ****       -10.0000  -9.0000  15.7500 Du        
   1546 ****       -10.0000  -9.0000  16.0000 Du        
   1547 ****       -10.0000  -9.0000  16.2500 Du        
   1548 ****       -10.0000  -9.0000  16.5000 Du        
   1549 ****       -10.0000  -9.0000  16.7500 Du        
   1550 ****       -10.0000  -9.0000  17.0000 Du        
   1551 ****       -10.0000  -9.0000  17.2500 Du        
   1552 ****       -10.0000  -8.7500  15.0000 Du        
   1553 ****       -10.0000  -8.7500  15.2500 Du        
   1554 ****       -10.0000  -8.7500  15.5000 Du        
   1555 ****       -10.0000  -8.7500  15.7500 Du        
   1556 ****       -10.0000  -8.7500  16.0000 Du        
   1557 ****       -10.0000  -8.7500  16.2500 Du        
   1558 ****       -10.0000  -8.7500  16.5000 Du        
   1559 ****       -10.0000  -8.7500  16.7500 Du        
   1560 ****       -10.0000  -8.7500  17.0000 Du        
   1561 ****       -10.0000  -8.7500  17.2500 Du        
   1562 ****       -10.0000  -8.7500  17.5000 Du        
   1563 ****       -10.0000  -8.7500  17.7500 Du        
   1564 ****       -10.0000  -8.5000  15.2500 Du        
   1565 ****       -10.0000  -8.5000  15.5000 Du        
   1566 ****       -10.0000  -8.5000  15.7500 Du        
   1567 ****       -10.0000  -8.5000  16.0000 Du        
   1568 ****       -10.0000  -8.5000  16.2500 Du        
   1569 ****       -10.0000  -8.5000  16.5000 Du        
   1570 ****       -10.0000  -8.5000  16.7500 Du        
   1571 ****       -10.0000  -8.5000  17.0000 Du        
   1572 ****       -10.0000  -8.5000  17.2500 Du        
   1573 ****       -10.0000  -8.5000  17.5000 Du        
   1574 ****       -10.0000  -8.5000  17.7500 Du        
   1575 ****       -10.0000  -8.5000  18.0000 Du        
   1576 ****       -10.0000  -8.2500  15.2500 Du        
   1577 ****       -10.0000  -8.2500  15.5000 Du        
   1578 ****       -10.0000  -8.2500  15.7500 Du        
   1579 ****       -10.0000  -8.2500  16.0000 Du        
   1580 ****       -10.0000  -8.2500  16.2500 Du        
   1581 ****       -10.0000  -8.2500  16.5000 Du        
   1582 ****       -10.0000  -8.2500  16.7500 Du        
   1583 ****       -10.0000  -8.2500  17.0000 Du        
   1584 ****       -10.0000  -8.2500  17.2500 Du        
   1585 ****       -10.0000  -8.2500  17.5000 Du        
   1586 ****       -10.0000  -8.2500  17.7500 Du        
   1587 ****       -10.0000  -8.2500  18.0000 Du        
   1588 ****       -10.0000  -8.2500  18.2500 Du        
   1589 ****       -10.0000  -8.2500  18.5000 Du        
   1590 ****       -10.0000  -8.0000  15.2500 Du        
   1591 ****       -10.0000  -8.0000  15.5000 Du        
   1592 ****       -10.0000  -8.0000  15.7500 Du        
   1593 ****       -10.0000  -8.0000  16.0000 Du        
   1594 ****       -10.0000  -8.0000  16.2500 Du        
   1595 ****       -10.0000  -8.0000  16.5000 Du        
   1596 ****       -10.0000  -8.0000  16.7500 Du        
   1597 ****       -10.0000  -8.0000  17.0000 Du        
   1598 ****       -10.0000  -8.0000  17.2500 Du        
   1599 ****       -10.0000  -8.0000  17.5000 Du        
   1600 ****       -10.0000  -8.0000  17.7500 Du        
   1601 ****       -10.0000  -8.0000  18.0000 Du        
   1602 ****       -10.0000  -8.0000  18.2500 Du        
   1603 ****       -10.0000  -8.0000  18.5000 Du        
   1604 ****       -10.0000  -8.0000  18.7500 Du        
   1605 ****       -10.0000  -7.7500  15.5000 Du        
   1606 ****       -10.0000  -7.7500  15.7500 Du        
   1607 ****       -10.0000  -7.7500  16.0000 Du        
   1608 ****       -10.0000  -7.7500  16.2500 Du        
   1609 ****       -10.0000  -7.7500  16.5000 Du        
   1610 ****       -10.0000  -7.7500  16.7500 Du        
   1611 ****       -10.0000  -7.7500  17.0000 Du        
   1612 ****       -10.0000  -7.7500  17.2500 Du        
   1613 ****       -10.0000  -7.7500  17.5000 Du        
   1614 ****       -10.0000  -7.7500  17.7500 Du        
   1615 ****       -10.0000  -7.7500  18.0000 Du        
   1616 ****       -10.0000  -7.7500  18.2500 Du        
   1617 ****       -10.0000  -7.7500  18.5000 Du        
   1618 ****       -10.0000  -7.7500  18.7500 Du        
   1619 ****       -10.0000  -7.5000  15.7500 Du        
   1620 ****       -10.0000  -7.5000  16.0000 Du        
   1621 ****       -10.0000  -7.5000  16.2500 Du        
   1622 ****       -10.0000  -7.5000  16.5000 Du        
   1623 ****       -10.0000  -7.5000  16.7500 Du        
   1624 ****       -10.0000  -7.5000  17.0000 Du        
   1625 ****       -10.0000  -7.5000  17.2500 Du        
   1626 ****       -10.0000  -7.5000  17.5000 Du        
   1627 ****       -10.0000  -7.5000  17.7500 Du        
   1628 ****       -10.0000  -7.5000  18.0000 Du        
   1629 ****       -10.0000  -7.5000  18.2500 Du        
   1630 ****       -10.0000  -7.5000  18.5000 Du        
   1631 ****       -10.0000  -7.5000  18.7500 Du        
   1632 ****       -10.0000  -7.2500  15.7500 Du        
   1633 ****       -10.0000  -7.2500  16.0000 Du        
   1634 ****       -10.0000  -7.2500  16.2500 Du        
   1635 ****       -10.0000  -7.2500  16.5000 Du        
   1636 ****       -10.0000  -7.2500  16.7500 Du        
   1637 ****       -10.0000  -7.2500  17.0000 Du        
   1638 ****       -10.0000  -7.2500  17.2500 Du        
   1639 ****       -10.0000  -7.2500  17.5000 Du        
   1640 ****       -10.0000  -7.2500  17.7500 Du        
   1641 ****       -10.0000  -7.2500  18.0000 Du        
   1642 ****       -10.0000  -7.2500  18.2500 Du        
   1643 ****       -10.0000  -7.2500  18.5000 Du        
   1644 ****       -10.0000  -7.2500  18.7500 Du        
   1645 ****       -10.0000  -7.0000  15.7500 Du        
   1646 ****       -10.0000  -7.0000  16.0000 Du        
   1647 ****       -10.0000  -7.0000  16.2500 Du        
   1648 ****       -10.0000  -7.0000  16.5000 Du        
   1649 ****       -10.0000  -7.0000  16.7500 Du        
   1650 ****       -10.0000  -7.0000  17.0000 Du        
   1651 ****       -10.0000  -7.0000  17.2500 Du        
   1652 ****       -10.0000  -7.0000  17.5000 Du        
   1653 ****       -10.0000  -7.0000  17.7500 Du        
   1654 ****       -10.0000  -7.0000  18.0000 Du        
   1655 ****       -10.0000  -7.0000  18.2500 Du        
   1656 ****       -10.0000  -7.0000  18.5000 Du        
   1657 ****       -10.0000  -7.0000  18.7500 Du        
   1658 ****       -10.0000  -6.7500  15.5000 Du        
   1659 ****       -10.0000  -6.7500  15.7500 Du        
   1660 ****       -10.0000  -6.7500  16.0000 Du        
   1661 ****       -10.0000  -6.7500  16.2500 Du        
   1662 ****       -10.0000  -6.7500  16.5000 Du        
   1663 ****       -10.0000  -6.7500  16.7500 Du        
   1664 ****       -10.0000  -6.7500  17.0000 Du        
   1665 ****       -10.0000  -6.7500  17.2500 Du        
   1666 ****       -10.0000  -6.7500  17.5000 Du        
   1667 ****       -10.0000  -6.7500  17.7500 Du        
   1668 ****       -10.0000  -6.7500  18.0000 Du        
   1669 ****       -10.0000  -6.7500  18.2500 Du        
   1670 ****       -10.0000  -6.7500  18.5000 Du        
   1671 ****       -10.0000  -6.7500  18.7500 Du        
   1672 ****       -10.0000  -6.5000  15.7500 Du        
   1673 ****       -10.0000  -6.5000  16.0000 Du        
   1674 ****       -10.0000  -6.5000  16.2500 Du        
   1675 ****       -10.0000  -6.5000  16.5000 Du        
   1676 ****       -10.0000  -6.5000  16.7500 Du        
   1677 ****       -10.0000  -6.5000  17.0000 Du        
   1678 ****       -10.0000  -6.5000  17.2500 Du        
   1679 ****       -10.0000  -6.5000  17.5000 Du        
   1680 ****       -10.0000  -6.5000  17.7500 Du        
   1681 ****       -10.0000  -6.5000  18.0000 Du        
   1682 ****       -10.0000  -6.5000  18.2500 Du        
   1683 ****       -10.0000  -6.5000  18.5000 Du        
   1684 ****       -10.0000  -6.5000  18.7500 Du        
   1685 ****       -10.0000  -6.2500  15.5000 Du        
   1686 ****       -10.0000  -6.2500  15.7500 Du        
   1687 ****       -10.0000  -6.2500  16.0000 Du        
   1688 ****       -10.0000  -6.2500  16.2500 Du        
   1689 ****       -10.0000  -6.2500  16.5000 Du        
   1690 ****       -10.0000  -6.2500  16.7500 Du        
   1691 ****       -10.0000  -6.2500  17.0000 Du        
   1692 ****       -10.0000  -6.2500  17.2500 Du        
   1693 ****       -10.0000  -6.2500  17.5000 Du        
   1694 ****       -10.0000  -6.2500  17.7500 Du        
   1695 ****       -10.0000  -6.2500  18.0000 Du        
   1696 ****       -10.0000  -6.2500  18.2500 Du        
   1697 ****       -10.0000  -6.2500  18.5000 Du        
   1698 ****       -10.0000  -6.2500  18.7500 Du        
   1699 ****       -10.0000  -6.0000  15.5000 Du        
   1700 ****       -10.0000  -6.0000  15.7500 Du        
   1701 ****       -10.0000  -6.0000  16.0000 Du        
   1702 ****       -10.0000  -6.0000  16.2500 Du        
   1703 ****       -10.0000  -6.0000  16.5000 Du        
   1704 ****       -10.0000  -6.0000  16.7500 Du        
   1705 ****       -10.0000  -6.0000  17.0000 Du        
   1706 ****       -10.0000  -6.0000  17.2500 Du        
   1707 ****       -10.0000  -6.0000  17.5000 Du        
   1708 ****       -10.0000  -6.0000  17.7500 Du        
   1709 ****       -10.0000  -6.0000  18.0000 Du        
   1710 ****       -10.0000  -6.0000  18.2500 Du        
   1711 ****       -10.0000  -6.0000  18.5000 Du        
   1712 ****       -10.0000  -6.0000  18.7500 Du        
   1713 ****       -10.0000  -5.7500  15.5000 Du        
   1714 ****       -10.0000  -5.7500  15.7500 Du        
   1715 ****       -10.0000  -5.7500  16.0000 Du        
   1716 ****       -10.0000  -5.7500  16.2500 Du        
   1717 ****       -10.0000  -5.7500  16.5000 Du        
   1718 ****       -10.0000  -5.7500  16.7500 Du        
   1719 ****       -10.0000  -5.7500  17.0000 Du        
   1720 ****       -10.0000  -5.7500  17.2500 Du        
   1721 ****       -10.0000  -5.7500  17.5000 Du        
   1722 ****       -10.0000  -5.7500  17.7500 Du        
   1723 ****       -10.0000  -5.7500  18.0000 Du        
   1724 ****       -10.0000  -5.7500  18.2500 Du        
   1725 ****       -10.0000  -5.7500  18.5000 Du        
   1726 ****       -10.0000  -5.7500  18.7500 Du        
   1727 ****       -10.0000  -5.5000  15.0000 Du        
   1728 ****       -10.0000  -5.5000  15.2500 Du        
   1729 ****       -10.0000  -5.5000  15.7500 Du        
   1730 ****       -10.0000  -5.5000  16.0000 Du        
   1731 ****       -10.0000  -5.5000  16.5000 Du        
   1732 ****       -10.0000  -5.5000  16.7500 Du        
   1733 ****       -10.0000  -5.5000  17.0000 Du        
   1734 ****       -10.0000  -5.5000  17.2500 Du        
   1735 ****       -10.0000  -5.5000  18.0000 Du        
   1736 ****       -10.0000  -5.5000  18.2500 Du        
   1737 ****       -10.0000  -5.2500  14.7500 Du        
   1738 ****       -10.0000  -5.2500  15.0000 Du        
   1739 ****       -10.0000  -5.2500  15.2500 Du        
   1740 ****       -10.0000  -5.2500  15.5000 Du        
   1741 ****       -10.0000  -5.2500  15.7500 Du        
   1742 ****       -10.0000  -5.2500  16.7500 Du        
   1743 ****       -10.0000  -5.2500  17.0000 Du        
   1744 ****       -10.0000  -5.2500  18.0000 Du        
   1745 ****       -10.0000  -5.2500  18.2500 Du        
   1746 ****       -10.0000  -5.0000  14.5000 Du        
   1747 ****       -10.0000  -5.0000  14.7500 Du        
   1748 ****       -10.0000  -5.0000  15.0000 Du        
   1749 ****       -10.0000  -5.0000  15.2500 Du        
   1750 ****       -10.0000  -5.0000  15.5000 Du        
   1751 ****       -10.0000  -4.7500  14.2500 Du        
   1752 ****       -10.0000  -4.7500  14.5000 Du        
   1753 ****       -10.0000  -4.7500  14.7500 Du        
   1754 ****       -10.0000  -4.7500  15.0000 Du        
   1755 ****       -10.0000  -4.7500  15.2500 Du        
   1756 ****       -10.0000  -4.5000  14.2500 Du        
   1757 ****       -10.0000  -4.2500  14.0000 Du        
   1758 ****       -10.0000  -4.2500  14.2500 Du        
   1759 ****       -10.0000  -4.0000  14.0000 Du        
   1760 ****       -10.0000  -4.0000  14.2500 Du        
   1761 ****       -10.0000  -3.0000  23.7500 Du        
   1762 ****       -10.0000  -2.7500  23.5000 Du        
   1763 ****       -10.0000  -2.7500  23.7500 Du        
   1764 ****       -10.0000  -2.5000  23.2500 Du        
   1765 ****       -10.0000  -2.5000  23.5000 Du        
   1766 ****       -10.0000  -2.5000  23.7500 Du        
   1767 ****       -10.0000  -2.2500  23.0000 Du        
   1768 ****       -10.0000  -2.2500  23.2500 Du        
   1769 ****       -10.0000  -2.2500  23.5000 Du        
   1770 ****       -10.0000  -2.2500  23.7500 Du        
   1771 ****       -10.0000  -2.0000  22.7500 Du        
   1772 ****       -10.0000  -2.0000  23.0000 Du        
   1773 ****       -10.0000  -2.0000  23.2500 Du        
   1774 ****       -10.0000  -2.0000  23.5000 Du        
   1775 ****       -10.0000  -2.0000  23.7500 Du        
   1776 ****       -10.0000  -1.7500  23.0000 Du        
   1777 ****       -10.0000  -1.7500  23.2500 Du        
   1778 ****       -10.0000  -1.7500  23.5000 Du        
   1779 ****       -10.0000  -1.7500  23.7500 Du        
   1780 ****       -10.0000  -1.5000  23.5000 Du        
   1781 ****       -10.0000  -1.5000  23.7500 Du        
   1782 ****       -10.0000  -1.2500  23.5000 Du        
   1783 ****       -10.0000  -1.2500  23.7500 Du        
   1784 ****       -10.0000  -1.0000  23.7500 Du        
   1785 ****        -9.7500 -10.0000  14.5000 Du        
   1786 ****        -9.7500 -10.0000  14.7500 Du        
   1787 ****        -9.7500 -10.0000  15.0000 Du        
   1788 ****        -9.7500 -10.0000  15.2500 Du        
   1789 ****        -9.7500 -10.0000  15.5000 Du        
   1790 ****        -9.7500 -10.0000  15.7500 Du        
   1791 ****        -9.7500 -10.0000  16.0000 Du        
   1792 ****        -9.7500 -10.0000  16.2500 Du        
   1793 ****        -9.7500 -10.0000  16.5000 Du        
   1794 ****        -9.7500 -10.0000  16.7500 Du        
   1795 ****        -9.7500 -10.0000  17.0000 Du        
   1796 ****        -9.7500  -9.7500  14.0000 Du        
   1797 ****        -9.7500  -9.7500  14.2500 Du        
   1798 ****        -9.7500  -9.7500  14.5000 Du        
   1799 ****        -9.7500  -9.7500  14.7500 Du        
   1800 ****        -9.7500  -9.7500  15.0000 Du        
   1801 ****        -9.7500  -9.7500  15.2500 Du        
   1802 ****        -9.7500  -9.7500  15.5000 Du        
   1803 ****        -9.7500  -9.7500  15.7500 Du        
   1804 ****        -9.7500  -9.7500  16.0000 Du        
   1805 ****        -9.7500  -9.7500  16.2500 Du        
   1806 ****        -9.7500  -9.7500  16.5000 Du        
   1807 ****        -9.7500  -9.7500  16.7500 Du        
   1808 ****        -9.7500  -9.7500  17.0000 Du        
   1809 ****        -9.7500  -9.5000  14.0000 Du        
   1810 ****        -9.7500  -9.5000  14.2500 Du        
   1811 ****        -9.7500  -9.5000  14.5000 Du        
   1812 ****        -9.7500  -9.5000  14.7500 Du        
   1813 ****        -9.7500  -9.5000  15.0000 Du        
   1814 ****        -9.7500  -9.5000  15.2500 Du        
   1815 ****        -9.7500  -9.5000  15.5000 Du        
   1816 ****        -9.7500  -9.5000  15.7500 Du        
   1817 ****        -9.7500  -9.5000  16.0000 Du        
   1818 ****        -9.7500  -9.5000  16.2500 Du        
   1819 ****        -9.7500  -9.5000  16.5000 Du        
   1820 ****        -9.7500  -9.5000  16.7500 Du        
   1821 ****        -9.7500  -9.5000  17.0000 Du        
   1822 ****        -9.7500  -9.5000  17.2500 Du        
   1823 ****        -9.7500  -9.2500  14.2500 Du        
   1824 ****        -9.7500  -9.2500  14.5000 Du        
   1825 ****        -9.7500  -9.2500  14.7500 Du        
   1826 ****        -9.7500  -9.2500  15.0000 Du        
   1827 ****        -9.7500  -9.2500  15.2500 Du        
   1828 ****        -9.7500  -9.2500  15.5000 Du        
   1829 ****        -9.7500  -9.2500  15.7500 Du        
   1830 ****        -9.7500  -9.2500  16.0000 Du        
   1831 ****        -9.7500  -9.2500  16.2500 Du        
   1832 ****        -9.7500  -9.2500  16.5000 Du        
   1833 ****        -9.7500  -9.2500  16.7500 Du        
   1834 ****        -9.7500  -9.2500  17.0000 Du        
   1835 ****        -9.7500  -9.2500  17.2500 Du        
   1836 ****        -9.7500  -9.2500  17.5000 Du        
   1837 ****        -9.7500  -9.0000  14.5000 Du        
   1838 ****        -9.7500  -9.0000  14.7500 Du        
   1839 ****        -9.7500  -9.0000  15.0000 Du        
   1840 ****        -9.7500  -9.0000  15.2500 Du        
   1841 ****        -9.7500  -9.0000  15.5000 Du        
   1842 ****        -9.7500  -9.0000  15.7500 Du        
   1843 ****        -9.7500  -9.0000  16.0000 Du        
   1844 ****        -9.7500  -9.0000  16.2500 Du        
   1845 ****        -9.7500  -9.0000  16.5000 Du        
   1846 ****        -9.7500  -9.0000  16.7500 Du        
   1847 ****        -9.7500  -9.0000  17.0000 Du        
   1848 ****        -9.7500  -9.0000  17.2500 Du        
   1849 ****        -9.7500  -9.0000  17.5000 Du        
   1850 ****        -9.7500  -9.0000  17.7500 Du        
   1851 ****        -9.7500  -8.7500  14.7500 Du        
   1852 ****        -9.7500  -8.7500  15.0000 Du        
   1853 ****        -9.7500  -8.7500  15.2500 Du        
   1854 ****        -9.7500  -8.7500  15.5000 Du        
   1855 ****        -9.7500  -8.7500  15.7500 Du        
   1856 ****        -9.7500  -8.7500  16.0000 Du        
   1857 ****        -9.7500  -8.7500  16.2500 Du        
   1858 ****        -9.7500  -8.7500  16.5000 Du        
   1859 ****        -9.7500  -8.7500  16.7500 Du        
   1860 ****        -9.7500  -8.7500  17.0000 Du        
   1861 ****        -9.7500  -8.7500  17.2500 Du        
   1862 ****        -9.7500  -8.7500  17.5000 Du        
   1863 ****        -9.7500  -8.7500  17.7500 Du        
   1864 ****        -9.7500  -8.7500  18.0000 Du        
   1865 ****        -9.7500  -8.7500  18.2500 Du        
   1866 ****        -9.7500  -8.5000  15.0000 Du        
   1867 ****        -9.7500  -8.5000  15.2500 Du        
   1868 ****        -9.7500  -8.5000  15.5000 Du        
   1869 ****        -9.7500  -8.5000  15.7500 Du        
   1870 ****        -9.7500  -8.5000  16.0000 Du        
   1871 ****        -9.7500  -8.5000  16.2500 Du        
   1872 ****        -9.7500  -8.5000  16.5000 Du        
   1873 ****        -9.7500  -8.5000  16.7500 Du        
   1874 ****        -9.7500  -8.5000  17.0000 Du        
   1875 ****        -9.7500  -8.5000  17.2500 Du        
   1876 ****        -9.7500  -8.5000  17.5000 Du        
   1877 ****        -9.7500  -8.5000  17.7500 Du        
   1878 ****        -9.7500  -8.5000  18.0000 Du        
   1879 ****        -9.7500  -8.5000  18.2500 Du        
   1880 ****        -9.7500  -8.5000  18.5000 Du        
   1881 ****        -9.7500  -8.5000  18.7500 Du        
   1882 ****        -9.7500  -8.2500  15.2500 Du        
   1883 ****        -9.7500  -8.2500  15.5000 Du        
   1884 ****        -9.7500  -8.2500  15.7500 Du        
   1885 ****        -9.7500  -8.2500  16.0000 Du        
   1886 ****        -9.7500  -8.2500  16.2500 Du        
   1887 ****        -9.7500  -8.2500  16.5000 Du        
   1888 ****        -9.7500  -8.2500  16.7500 Du        
   1889 ****        -9.7500  -8.2500  17.0000 Du        
   1890 ****        -9.7500  -8.2500  17.2500 Du        
   1891 ****        -9.7500  -8.2500  17.5000 Du        
   1892 ****        -9.7500  -8.2500  17.7500 Du        
   1893 ****        -9.7500  -8.2500  18.0000 Du        
   1894 ****        -9.7500  -8.2500  18.2500 Du        
   1895 ****        -9.7500  -8.2500  18.5000 Du        
   1896 ****        -9.7500  -8.2500  18.7500 Du        
   1897 ****        -9.7500  -8.2500  19.0000 Du        
   1898 ****        -9.7500  -8.0000  15.2500 Du        
   1899 ****        -9.7500  -8.0000  15.5000 Du        
   1900 ****        -9.7500  -8.0000  15.7500 Du        
   1901 ****        -9.7500  -8.0000  16.0000 Du        
   1902 ****        -9.7500  -8.0000  16.2500 Du        
   1903 ****        -9.7500  -8.0000  16.5000 Du        
   1904 ****        -9.7500  -8.0000  16.7500 Du        
   1905 ****        -9.7500  -8.0000  17.0000 Du        
   1906 ****        -9.7500  -8.0000  17.2500 Du        
   1907 ****        -9.7500  -8.0000  17.5000 Du        
   1908 ****        -9.7500  -8.0000  17.7500 Du        
   1909 ****        -9.7500  -8.0000  18.0000 Du        
   1910 ****        -9.7500  -8.0000  18.2500 Du        
   1911 ****        -9.7500  -8.0000  18.5000 Du        
   1912 ****        -9.7500  -8.0000  18.7500 Du        
   1913 ****        -9.7500  -8.0000  19.0000 Du        
   1914 ****        -9.7500  -7.7500  15.2500 Du        
   1915 ****        -9.7500  -7.7500  15.5000 Du        
   1916 ****        -9.7500  -7.7500  15.7500 Du        
   1917 ****        -9.7500  -7.7500  16.0000 Du        
   1918 ****        -9.7500  -7.7500  16.2500 Du        
   1919 ****        -9.7500  -7.7500  16.5000 Du        
   1920 ****        -9.7500  -7.7500  16.7500 Du        
   1921 ****        -9.7500  -7.7500  17.0000 Du        
   1922 ****        -9.7500  -7.7500  17.2500 Du        
   1923 ****        -9.7500  -7.7500  17.5000 Du        
   1924 ****        -9.7500  -7.7500  17.7500 Du        
   1925 ****        -9.7500  -7.7500  18.0000 Du        
   1926 ****        -9.7500  -7.7500  18.2500 Du        
   1927 ****        -9.7500  -7.7500  18.5000 Du        
   1928 ****        -9.7500  -7.7500  18.7500 Du        
   1929 ****        -9.7500  -7.7500  19.0000 Du        
   1930 ****        -9.7500  -7.5000  15.5000 Du        
   1931 ****        -9.7500  -7.5000  15.7500 Du        
   1932 ****        -9.7500  -7.5000  16.0000 Du        
   1933 ****        -9.7500  -7.5000  16.2500 Du        
   1934 ****        -9.7500  -7.5000  16.5000 Du        
   1935 ****        -9.7500  -7.5000  16.7500 Du        
   1936 ****        -9.7500  -7.5000  17.0000 Du        
   1937 ****        -9.7500  -7.5000  17.2500 Du        
   1938 ****        -9.7500  -7.5000  17.5000 Du        
   1939 ****        -9.7500  -7.5000  17.7500 Du        
   1940 ****        -9.7500  -7.5000  18.0000 Du        
   1941 ****        -9.7500  -7.5000  18.2500 Du        
   1942 ****        -9.7500  -7.5000  18.5000 Du        
   1943 ****        -9.7500  -7.5000  18.7500 Du        
   1944 ****        -9.7500  -7.5000  19.0000 Du        
   1945 ****        -9.7500  -7.2500  15.5000 Du        
   1946 ****        -9.7500  -7.2500  15.7500 Du        
   1947 ****        -9.7500  -7.2500  16.0000 Du        
   1948 ****        -9.7500  -7.2500  16.2500 Du        
   1949 ****        -9.7500  -7.2500  16.5000 Du        
   1950 ****        -9.7500  -7.2500  16.7500 Du        
   1951 ****        -9.7500  -7.2500  17.0000 Du        
   1952 ****        -9.7500  -7.2500  17.2500 Du        
   1953 ****        -9.7500  -7.2500  17.5000 Du        
   1954 ****        -9.7500  -7.2500  17.7500 Du        
   1955 ****        -9.7500  -7.2500  18.0000 Du        
   1956 ****        -9.7500  -7.2500  18.2500 Du        
   1957 ****        -9.7500  -7.2500  18.5000 Du        
   1958 ****        -9.7500  -7.2500  18.7500 Du        
   1959 ****        -9.7500  -7.2500  19.0000 Du        
   1960 ****        -9.7500  -7.0000  15.5000 Du        
   1961 ****        -9.7500  -7.0000  15.7500 Du        
   1962 ****        -9.7500  -7.0000  16.0000 Du        
   1963 ****        -9.7500  -7.0000  16.2500 Du        
   1964 ****        -9.7500  -7.0000  16.5000 Du        
   1965 ****        -9.7500  -7.0000  16.7500 Du        
   1966 ****        -9.7500  -7.0000  17.0000 Du        
   1967 ****        -9.7500  -7.0000  17.2500 Du        
   1968 ****        -9.7500  -7.0000  17.5000 Du        
   1969 ****        -9.7500  -7.0000  17.7500 Du        
   1970 ****        -9.7500  -7.0000  18.0000 Du        
   1971 ****        -9.7500  -7.0000  18.2500 Du        
   1972 ****        -9.7500  -7.0000  18.5000 Du        
   1973 ****        -9.7500  -7.0000  18.7500 Du        
   1974 ****        -9.7500  -7.0000  19.0000 Du        
   1975 ****        -9.7500  -6.7500  15.5000 Du        
   1976 ****        -9.7500  -6.7500  15.7500 Du        
   1977 ****        -9.7500  -6.7500  16.0000 Du        
   1978 ****        -9.7500  -6.7500  16.2500 Du        
   1979 ****        -9.7500  -6.7500  16.5000 Du        
   1980 ****        -9.7500  -6.7500  16.7500 Du        
   1981 ****        -9.7500  -6.7500  17.0000 Du        
   1982 ****        -9.7500  -6.7500  17.2500 Du        
   1983 ****        -9.7500  -6.7500  17.5000 Du        
   1984 ****        -9.7500  -6.7500  17.7500 Du        
   1985 ****        -9.7500  -6.7500  18.0000 Du        
   1986 ****        -9.7500  -6.7500  18.2500 Du        
   1987 ****        -9.7500  -6.7500  18.5000 Du        
   1988 ****        -9.7500  -6.7500  18.7500 Du        
   1989 ****        -9.7500  -6.7500  19.0000 Du        
   1990 ****        -9.7500  -6.5000  15.7500 Du        
   1991 ****        -9.7500  -6.5000  16.0000 Du        
   1992 ****        -9.7500  -6.5000  16.2500 Du        
   1993 ****        -9.7500  -6.5000  16.5000 Du        
   1994 ****        -9.7500  -6.5000  16.7500 Du        
   1995 ****        -9.7500  -6.5000  17.0000 Du        
   1996 ****        -9.7500  -6.5000  17.2500 Du        
   1997 ****        -9.7500  -6.5000  17.5000 Du        
   1998 ****        -9.7500  -6.5000  17.7500 Du        
   1999 ****        -9.7500  -6.5000  18.0000 Du        
   2000 ****        -9.7500  -6.5000  18.2500 Du        
   2001 ****        -9.7500  -6.5000  18.5000 Du        
   2002 ****        -9.7500  -6.5000  18.7500 Du        
   2003 ****        -9.7500  -6.5000  19.0000 Du        
   2004 ****        -9.7500  -6.2500  15.5000 Du        
   2005 ****        -9.7500  -6.2500  15.7500 Du        
   2006 ****        -9.7500  -6.2500  16.0000 Du        
   2007 ****        -9.7500  -6.2500  16.2500 Du        
   2008 ****        -9.7500  -6.2500  16.5000 Du        
   2009 ****        -9.7500  -6.2500  16.7500 Du        
   2010 ****        -9.7500  -6.2500  17.0000 Du        
   2011 ****        -9.7500  -6.2500  17.2500 Du        
   2012 ****        -9.7500  -6.2500  17.5000 Du        
   2013 ****        -9.7500  -6.2500  17.7500 Du        
   2014 ****        -9.7500  -6.2500  18.0000 Du        
   2015 ****        -9.7500  -6.2500  18.2500 Du        
   2016 ****        -9.7500  -6.2500  18.5000 Du        
   2017 ****        -9.7500  -6.2500  18.7500 Du        
   2018 ****        -9.7500  -6.2500  19.0000 Du        
   2019 ****        -9.7500  -6.0000  15.5000 Du        
   2020 ****        -9.7500  -6.0000  15.7500 Du        
   2021 ****        -9.7500  -6.0000  16.0000 Du        
   2022 ****        -9.7500  -6.0000  16.2500 Du        
   2023 ****        -9.7500  -6.0000  16.5000 Du        
   2024 ****        -9.7500  -6.0000  16.7500 Du        
   2025 ****        -9.7500  -6.0000  17.0000 Du        
   2026 ****        -9.7500  -6.0000  17.2500 Du        
   2027 ****        -9.7500  -6.0000  17.5000 Du        
   2028 ****        -9.7500  -6.0000  17.7500 Du        
   2029 ****        -9.7500  -6.0000  18.0000 Du        
   2030 ****        -9.7500  -6.0000  18.2500 Du        
   2031 ****        -9.7500  -6.0000  18.5000 Du        
   2032 ****        -9.7500  -6.0000  18.7500 Du        
   2033 ****        -9.7500  -6.0000  19.0000 Du        
   2034 ****        -9.7500  -5.7500  15.2500 Du        
   2035 ****        -9.7500  -5.7500  15.5000 Du        
   2036 ****        -9.7500  -5.7500  15.7500 Du        
   2037 ****        -9.7500  -5.7500  16.0000 Du        
   2038 ****        -9.7500  -5.7500  16.2500 Du        
   2039 ****        -9.7500  -5.7500  16.5000 Du        
   2040 ****        -9.7500  -5.7500  16.7500 Du        
   2041 ****        -9.7500  -5.7500  17.0000 Du        
   2042 ****        -9.7500  -5.7500  17.2500 Du        
   2043 ****        -9.7500  -5.7500  17.5000 Du        
   2044 ****        -9.7500  -5.7500  17.7500 Du        
   2045 ****        -9.7500  -5.7500  18.0000 Du        
   2046 ****        -9.7500  -5.7500  18.2500 Du        
   2047 ****        -9.7500  -5.7500  18.5000 Du        
   2048 ****        -9.7500  -5.5000  15.0000 Du        
   2049 ****        -9.7500  -5.5000  15.2500 Du        
   2050 ****        -9.7500  -5.5000  15.5000 Du        
   2051 ****        -9.7500  -5.5000  15.7500 Du        
   2052 ****        -9.7500  -5.5000  18.0000 Du        
   2053 ****        -9.7500  -5.5000  18.2500 Du        
   2054 ****        -9.7500  -5.2500  14.7500 Du        
   2055 ****        -9.7500  -5.2500  15.0000 Du        
   2056 ****        -9.7500  -5.2500  15.2500 Du        
   2057 ****        -9.7500  -5.0000  14.5000 Du        
   2058 ****        -9.7500  -5.0000  14.7500 Du        
   2059 ****        -9.7500  -5.0000  15.0000 Du        
   2060 ****        -9.7500  -4.7500  14.5000 Du        
   2061 ****        -9.7500  -4.7500  14.7500 Du        
   2062 ****        -9.7500  -3.0000  23.5000 Du        
   2063 ****        -9.7500  -3.0000  23.7500 Du        
   2064 ****        -9.7500  -2.7500  23.2500 Du        
   2065 ****        -9.7500  -2.7500  23.5000 Du        
   2066 ****        -9.7500  -2.7500  23.7500 Du        
   2067 ****        -9.7500  -2.5000  23.0000 Du        
   2068 ****        -9.7500  -2.5000  23.2500 Du        
   2069 ****        -9.7500  -2.5000  23.5000 Du        
   2070 ****        -9.7500  -2.5000  23.7500 Du        
   2071 ****        -9.7500  -2.2500  22.7500 Du        
   2072 ****        -9.7500  -2.2500  23.0000 Du        
   2073 ****        -9.7500  -2.2500  23.2500 Du        
   2074 ****        -9.7500  -2.2500  23.5000 Du        
   2075 ****        -9.7500  -2.2500  23.7500 Du        
   2076 ****        -9.7500  -2.0000  22.7500 Du        
   2077 ****        -9.7500  -2.0000  23.0000 Du        
   2078 ****        -9.7500  -2.0000  23.2500 Du        
   2079 ****        -9.7500  -2.0000  23.5000 Du        
   2080 ****        -9.7500  -2.0000  23.7500 Du        
   2081 ****        -9.7500  -1.7500  22.7500 Du        
   2082 ****        -9.7500  -1.7500  23.0000 Du        
   2083 ****        -9.7500  -1.7500  23.2500 Du        
   2084 ****        -9.7500  -1.7500  23.5000 Du        
   2085 ****        -9.7500  -1.7500  23.7500 Du        
   2086 ****        -9.7500  -1.5000  23.0000 Du        
   2087 ****        -9.7500  -1.5000  23.2500 Du        
   2088 ****        -9.7500  -1.5000  23.5000 Du        
   2089 ****        -9.7500  -1.5000  23.7500 Du        
   2090 ****        -9.7500  -1.2500  23.5000 Du        
   2091 ****        -9.7500  -1.2500  23.7500 Du        
   2092 ****        -9.7500  -1.0000  23.7500 Du        
   2093 ****        -9.5000 -10.0000  14.2500 Du        
   2094 ****        -9.5000 -10.0000  14.5000 Du        
   2095 ****        -9.5000 -10.0000  14.7500 Du        
   2096 ****        -9.5000 -10.0000  15.0000 Du        
   2097 ****        -9.5000 -10.0000  15.2500 Du        
   2098 ****        -9.5000 -10.0000  15.5000 Du        
   2099 ****        -9.5000 -10.0000  15.7500 Du        
   2100 ****        -9.5000 -10.0000  16.0000 Du        
   2101 ****        -9.5000 -10.0000  16.2500 Du        
   2102 ****        -9.5000 -10.0000  16.5000 Du        
   2103 ****        -9.5000 -10.0000  16.7500 Du        
   2104 ****        -9.5000 -10.0000  17.0000 Du        
   2105 ****        -9.5000 -10.0000  17.2500 Du        
   2106 ****        -9.5000  -9.7500  14.0000 Du        
   2107 ****        -9.5000  -9.7500  14.2500 Du        
   2108 ****        -9.5000  -9.7500  14.5000 Du        
   2109 ****        -9.5000  -9.7500  14.7500 Du        
   2110 ****        -9.5000  -9.7500  15.0000 Du        
   2111 ****        -9.5000  -9.7500  15.2500 Du        
   2112 ****        -9.5000  -9.7500  15.5000 Du        
   2113 ****        -9.5000  -9.7500  15.7500 Du        
   2114 ****        -9.5000  -9.7500  16.0000 Du        
   2115 ****        -9.5000  -9.7500  16.2500 Du        
   2116 ****        -9.5000  -9.7500  16.5000 Du        
   2117 ****        -9.5000  -9.7500  16.7500 Du        
   2118 ****        -9.5000  -9.7500  17.0000 Du        
   2119 ****        -9.5000  -9.7500  17.2500 Du        
   2120 ****        -9.5000  -9.7500  17.5000 Du        
   2121 ****        -9.5000  -9.5000  13.7500 Du        
   2122 ****        -9.5000  -9.5000  14.0000 Du        
   2123 ****        -9.5000  -9.5000  14.2500 Du        
   2124 ****        -9.5000  -9.5000  14.5000 Du        
   2125 ****        -9.5000  -9.5000  14.7500 Du        
   2126 ****        -9.5000  -9.5000  15.0000 Du        
   2127 ****        -9.5000  -9.5000  15.2500 Du        
   2128 ****        -9.5000  -9.5000  15.5000 Du        
   2129 ****        -9.5000  -9.5000  15.7500 Du        
   2130 ****        -9.5000  -9.5000  16.0000 Du        
   2131 ****        -9.5000  -9.5000  16.2500 Du        
   2132 ****        -9.5000  -9.5000  16.5000 Du        
   2133 ****        -9.5000  -9.5000  16.7500 Du        
   2134 ****        -9.5000  -9.5000  17.0000 Du        
   2135 ****        -9.5000  -9.5000  17.2500 Du        
   2136 ****        -9.5000  -9.5000  17.5000 Du        
   2137 ****        -9.5000  -9.2500  14.0000 Du        
   2138 ****        -9.5000  -9.2500  14.2500 Du        
   2139 ****        -9.5000  -9.2500  14.5000 Du        
   2140 ****        -9.5000  -9.2500  14.7500 Du        
   2141 ****        -9.5000  -9.2500  15.0000 Du        
   2142 ****        -9.5000  -9.2500  15.2500 Du        
   2143 ****        -9.5000  -9.2500  15.5000 Du        
   2144 ****        -9.5000  -9.2500  15.7500 Du        
   2145 ****        -9.5000  -9.2500  16.0000 Du        
   2146 ****        -9.5000  -9.2500  16.2500 Du        
   2147 ****        -9.5000  -9.2500  16.5000 Du        
   2148 ****        -9.5000  -9.2500  16.7500 Du        
   2149 ****        -9.5000  -9.2500  17.0000 Du        
   2150 ****        -9.5000  -9.2500  17.2500 Du        
   2151 ****        -9.5000  -9.2500  17.5000 Du        
   2152 ****        -9.5000  -9.2500  17.7500 Du        
   2153 ****        -9.5000  -9.2500  18.0000 Du        
   2154 ****        -9.5000  -9.0000  14.2500 Du        
   2155 ****        -9.5000  -9.0000  14.5000 Du        
   2156 ****        -9.5000  -9.0000  14.7500 Du        
   2157 ****        -9.5000  -9.0000  15.0000 Du        
   2158 ****        -9.5000  -9.0000  15.2500 Du        
   2159 ****        -9.5000  -9.0000  15.5000 Du        
   2160 ****        -9.5000  -9.0000  15.7500 Du        
   2161 ****        -9.5000  -9.0000  16.0000 Du        
   2162 ****        -9.5000  -9.0000  16.2500 Du        
   2163 ****        -9.5000  -9.0000  16.5000 Du        
   2164 ****        -9.5000  -9.0000  16.7500 Du        
   2165 ****        -9.5000  -9.0000  17.0000 Du        
   2166 ****        -9.5000  -9.0000  17.2500 Du        
   2167 ****        -9.5000  -9.0000  17.5000 Du        
   2168 ****        -9.5000  -9.0000  17.7500 Du        
   2169 ****        -9.5000  -9.0000  18.0000 Du        
   2170 ****        -9.5000  -9.0000  18.2500 Du        
   2171 ****        -9.5000  -9.0000  18.5000 Du        
   2172 ****        -9.5000  -9.0000  18.7500 Du        
   2173 ****        -9.5000  -9.0000  19.0000 Du        
   2174 ****        -9.5000  -9.0000  19.2500 Du        
   2175 ****        -9.5000  -8.7500  14.5000 Du        
   2176 ****        -9.5000  -8.7500  14.7500 Du        
   2177 ****        -9.5000  -8.7500  15.0000 Du        
   2178 ****        -9.5000  -8.7500  15.2500 Du        
   2179 ****        -9.5000  -8.7500  15.5000 Du        
   2180 ****        -9.5000  -8.7500  15.7500 Du        
   2181 ****        -9.5000  -8.7500  16.0000 Du        
   2182 ****        -9.5000  -8.7500  16.2500 Du        
   2183 ****        -9.5000  -8.7500  16.5000 Du        
   2184 ****        -9.5000  -8.7500  16.7500 Du        
   2185 ****        -9.5000  -8.7500  17.0000 Du        
   2186 ****        -9.5000  -8.7500  17.2500 Du        
   2187 ****        -9.5000  -8.7500  17.5000 Du        
   2188 ****        -9.5000  -8.7500  17.7500 Du        
   2189 ****        -9.5000  -8.7500  18.0000 Du        
   2190 ****        -9.5000  -8.7500  18.2500 Du        
   2191 ****        -9.5000  -8.7500  18.5000 Du        
   2192 ****        -9.5000  -8.7500  18.7500 Du        
   2193 ****        -9.5000  -8.7500  19.0000 Du        
   2194 ****        -9.5000  -8.7500  19.2500 Du        
   2195 ****        -9.5000  -8.7500  19.5000 Du        
   2196 ****        -9.5000  -8.5000  15.0000 Du        
   2197 ****        -9.5000  -8.5000  15.2500 Du        
   2198 ****        -9.5000  -8.5000  15.5000 Du        
   2199 ****        -9.5000  -8.5000  15.7500 Du        
   2200 ****        -9.5000  -8.5000  16.0000 Du        
   2201 ****        -9.5000  -8.5000  16.2500 Du        
   2202 ****        -9.5000  -8.5000  16.5000 Du        
   2203 ****        -9.5000  -8.5000  16.7500 Du        
   2204 ****        -9.5000  -8.5000  17.0000 Du        
   2205 ****        -9.5000  -8.5000  17.2500 Du        
   2206 ****        -9.5000  -8.5000  17.5000 Du        
   2207 ****        -9.5000  -8.5000  17.7500 Du        
   2208 ****        -9.5000  -8.5000  18.0000 Du        
   2209 ****        -9.5000  -8.5000  18.2500 Du        
   2210 ****        -9.5000  -8.5000  18.5000 Du        
   2211 ****        -9.5000  -8.5000  18.7500 Du        
   2212 ****        -9.5000  -8.5000  19.0000 Du        
   2213 ****        -9.5000  -8.5000  19.2500 Du        
   2214 ****        -9.5000  -8.5000  19.5000 Du        
   2215 ****        -9.5000  -8.2500  15.0000 Du        
   2216 ****        -9.5000  -8.2500  15.2500 Du        
   2217 ****        -9.5000  -8.2500  15.5000 Du        
   2218 ****        -9.5000  -8.2500  15.7500 Du        
   2219 ****        -9.5000  -8.2500  16.0000 Du        
   2220 ****        -9.5000  -8.2500  16.2500 Du        
   2221 ****        -9.5000  -8.2500  16.5000 Du        
   2222 ****        -9.5000  -8.2500  16.7500 Du        
   2223 ****        -9.5000  -8.2500  17.0000 Du        
   2224 ****        -9.5000  -8.2500  17.2500 Du        
   2225 ****        -9.5000  -8.2500  17.5000 Du        
   2226 ****        -9.5000  -8.2500  17.7500 Du        
   2227 ****        -9.5000  -8.2500  18.0000 Du        
   2228 ****        -9.5000  -8.2500  18.2500 Du        
   2229 ****        -9.5000  -8.2500  18.5000 Du        
   2230 ****        -9.5000  -8.2500  18.7500 Du        
   2231 ****        -9.5000  -8.2500  19.0000 Du        
   2232 ****        -9.5000  -8.2500  19.2500 Du        
   2233 ****        -9.5000  -8.2500  19.5000 Du        
   2234 ****        -9.5000  -8.0000  15.2500 Du        
   2235 ****        -9.5000  -8.0000  15.5000 Du        
   2236 ****        -9.5000  -8.0000  15.7500 Du        
   2237 ****        -9.5000  -8.0000  16.0000 Du        
   2238 ****        -9.5000  -8.0000  16.2500 Du        
   2239 ****        -9.5000  -8.0000  16.5000 Du        
   2240 ****        -9.5000  -8.0000  16.7500 Du        
   2241 ****        -9.5000  -8.0000  17.0000 Du        
   2242 ****        -9.5000  -8.0000  17.2500 Du        
   2243 ****        -9.5000  -8.0000  17.5000 Du        
   2244 ****        -9.5000  -8.0000  17.7500 Du        
   2245 ****        -9.5000  -8.0000  18.0000 Du        
   2246 ****        -9.5000  -8.0000  18.2500 Du        
   2247 ****        -9.5000  -8.0000  18.5000 Du        
   2248 ****        -9.5000  -8.0000  18.7500 Du        
   2249 ****        -9.5000  -8.0000  19.0000 Du        
   2250 ****        -9.5000  -8.0000  19.2500 Du        
   2251 ****        -9.5000  -8.0000  19.5000 Du        
   2252 ****        -9.5000  -7.7500  15.2500 Du        
   2253 ****        -9.5000  -7.7500  15.5000 Du        
   2254 ****        -9.5000  -7.7500  15.7500 Du        
   2255 ****        -9.5000  -7.7500  16.0000 Du        
   2256 ****        -9.5000  -7.7500  16.2500 Du        
   2257 ****        -9.5000  -7.7500  16.5000 Du        
   2258 ****        -9.5000  -7.7500  16.7500 Du        
   2259 ****        -9.5000  -7.7500  17.0000 Du        
   2260 ****        -9.5000  -7.7500  17.2500 Du        
   2261 ****        -9.5000  -7.7500  17.5000 Du        
   2262 ****        -9.5000  -7.7500  17.7500 Du        
   2263 ****        -9.5000  -7.7500  18.0000 Du        
   2264 ****        -9.5000  -7.7500  18.2500 Du        
   2265 ****        -9.5000  -7.7500  18.5000 Du        
   2266 ****        -9.5000  -7.7500  18.7500 Du        
   2267 ****        -9.5000  -7.7500  19.0000 Du        
   2268 ****        -9.5000  -7.7500  19.2500 Du        
   2269 ****        -9.5000  -7.5000  15.5000 Du        
   2270 ****        -9.5000  -7.5000  15.7500 Du        
   2271 ****        -9.5000  -7.5000  16.0000 Du        
   2272 ****        -9.5000  -7.5000  16.2500 Du        
   2273 ****        -9.5000  -7.5000  16.5000 Du        
   2274 ****        -9.5000  -7.5000  16.7500 Du        
   2275 ****        -9.5000  -7.5000  17.0000 Du        
   2276 ****        -9.5000  -7.5000  17.2500 Du        
   2277 ****        -9.5000  -7.5000  17.5000 Du        
   2278 ****        -9.5000  -7.5000  17.7500 Du        
   2279 ****        -9.5000  -7.5000  18.0000 Du        
   2280 ****        -9.5000  -7.5000  18.2500 Du        
   2281 ****        -9.5000  -7.5000  18.5000 Du        
   2282 ****        -9.5000  -7.5000  18.7500 Du        
   2283 ****        -9.5000  -7.5000  19.0000 Du        
   2284 ****        -9.5000  -7.5000  19.2500 Du        
   2285 ****        -9.5000  -7.2500  15.5000 Du        
   2286 ****        -9.5000  -7.2500  15.7500 Du        
   2287 ****        -9.5000  -7.2500  16.0000 Du        
   2288 ****        -9.5000  -7.2500  16.2500 Du        
   2289 ****        -9.5000  -7.2500  16.5000 Du        
   2290 ****        -9.5000  -7.2500  16.7500 Du        
   2291 ****        -9.5000  -7.2500  17.0000 Du        
   2292 ****        -9.5000  -7.2500  17.2500 Du        
   2293 ****        -9.5000  -7.2500  17.5000 Du        
   2294 ****        -9.5000  -7.2500  17.7500 Du        
   2295 ****        -9.5000  -7.2500  18.0000 Du        
   2296 ****        -9.5000  -7.2500  18.2500 Du        
   2297 ****        -9.5000  -7.2500  18.5000 Du        
   2298 ****        -9.5000  -7.2500  18.7500 Du        
   2299 ****        -9.5000  -7.2500  19.0000 Du        
   2300 ****        -9.5000  -7.2500  19.2500 Du        
   2301 ****        -9.5000  -7.0000  15.7500 Du        
   2302 ****        -9.5000  -7.0000  16.0000 Du        
   2303 ****        -9.5000  -7.0000  16.2500 Du        
   2304 ****        -9.5000  -7.0000  16.5000 Du        
   2305 ****        -9.5000  -7.0000  16.7500 Du        
   2306 ****        -9.5000  -7.0000  17.0000 Du        
   2307 ****        -9.5000  -7.0000  17.2500 Du        
   2308 ****        -9.5000  -7.0000  17.5000 Du        
   2309 ****        -9.5000  -7.0000  17.7500 Du        
   2310 ****        -9.5000  -7.0000  18.0000 Du        
   2311 ****        -9.5000  -7.0000  18.2500 Du        
   2312 ****        -9.5000  -7.0000  18.5000 Du        
   2313 ****        -9.5000  -7.0000  18.7500 Du        
   2314 ****        -9.5000  -7.0000  19.0000 Du        
   2315 ****        -9.5000  -7.0000  19.2500 Du        
   2316 ****        -9.5000  -6.7500  15.7500 Du        
   2317 ****        -9.5000  -6.7500  16.0000 Du        
   2318 ****        -9.5000  -6.7500  16.2500 Du        
   2319 ****        -9.5000  -6.7500  16.5000 Du        
   2320 ****        -9.5000  -6.7500  16.7500 Du        
   2321 ****        -9.5000  -6.7500  17.0000 Du        
   2322 ****        -9.5000  -6.7500  17.2500 Du        
   2323 ****        -9.5000  -6.7500  17.5000 Du        
   2324 ****        -9.5000  -6.7500  17.7500 Du        
   2325 ****        -9.5000  -6.7500  18.0000 Du        
   2326 ****        -9.5000  -6.7500  18.2500 Du        
   2327 ****        -9.5000  -6.7500  18.5000 Du        
   2328 ****        -9.5000  -6.7500  18.7500 Du        
   2329 ****        -9.5000  -6.7500  19.0000 Du        
   2330 ****        -9.5000  -6.7500  19.2500 Du        
   2331 ****        -9.5000  -6.5000  15.7500 Du        
   2332 ****        -9.5000  -6.5000  16.0000 Du        
   2333 ****        -9.5000  -6.5000  16.2500 Du        
   2334 ****        -9.5000  -6.5000  16.5000 Du        
   2335 ****        -9.5000  -6.5000  16.7500 Du        
   2336 ****        -9.5000  -6.5000  17.0000 Du        
   2337 ****        -9.5000  -6.5000  17.2500 Du        
   2338 ****        -9.5000  -6.5000  17.5000 Du        
   2339 ****        -9.5000  -6.5000  17.7500 Du        
   2340 ****        -9.5000  -6.5000  18.0000 Du        
   2341 ****        -9.5000  -6.5000  18.2500 Du        
   2342 ****        -9.5000  -6.5000  18.5000 Du        
   2343 ****        -9.5000  -6.5000  18.7500 Du        
   2344 ****        -9.5000  -6.5000  19.0000 Du        
   2345 ****        -9.5000  -6.2500  15.5000 Du        
   2346 ****        -9.5000  -6.2500  15.7500 Du        
   2347 ****        -9.5000  -6.2500  16.0000 Du        
   2348 ****        -9.5000  -6.2500  16.2500 Du        
   2349 ****        -9.5000  -6.2500  16.5000 Du        
   2350 ****        -9.5000  -6.2500  16.7500 Du        
   2351 ****        -9.5000  -6.2500  17.0000 Du        
   2352 ****        -9.5000  -6.2500  17.2500 Du        
   2353 ****        -9.5000  -6.2500  17.5000 Du        
   2354 ****        -9.5000  -6.2500  17.7500 Du        
   2355 ****        -9.5000  -6.2500  18.0000 Du        
   2356 ****        -9.5000  -6.2500  18.2500 Du        
   2357 ****        -9.5000  -6.2500  18.5000 Du        
   2358 ****        -9.5000  -6.2500  18.7500 Du        
   2359 ****        -9.5000  -6.2500  19.0000 Du        
   2360 ****        -9.5000  -6.0000  15.5000 Du        
   2361 ****        -9.5000  -6.0000  15.7500 Du        
   2362 ****        -9.5000  -6.0000  16.0000 Du        
   2363 ****        -9.5000  -6.0000  16.2500 Du        
   2364 ****        -9.5000  -6.0000  16.5000 Du        
   2365 ****        -9.5000  -6.0000  16.7500 Du        
   2366 ****        -9.5000  -6.0000  17.0000 Du        
   2367 ****        -9.5000  -6.0000  17.2500 Du        
   2368 ****        -9.5000  -6.0000  17.5000 Du        
   2369 ****        -9.5000  -6.0000  17.7500 Du        
   2370 ****        -9.5000  -6.0000  18.0000 Du        
   2371 ****        -9.5000  -6.0000  18.2500 Du        
   2372 ****        -9.5000  -6.0000  18.5000 Du        
   2373 ****        -9.5000  -6.0000  18.7500 Du        
   2374 ****        -9.5000  -6.0000  19.0000 Du        
   2375 ****        -9.5000  -5.7500  15.2500 Du        
   2376 ****        -9.5000  -5.7500  15.5000 Du        
   2377 ****        -9.5000  -5.7500  15.7500 Du        
   2378 ****        -9.5000  -5.7500  16.0000 Du        
   2379 ****        -9.5000  -5.7500  18.0000 Du        
   2380 ****        -9.5000  -5.7500  18.2500 Du        
   2381 ****        -9.5000  -5.7500  18.5000 Du        
   2382 ****        -9.5000  -5.7500  18.7500 Du        
   2383 ****        -9.5000  -3.0000  23.5000 Du        
   2384 ****        -9.5000  -3.0000  23.7500 Du        
   2385 ****        -9.5000  -2.7500  23.2500 Du        
   2386 ****        -9.5000  -2.7500  23.5000 Du        
   2387 ****        -9.5000  -2.7500  23.7500 Du        
   2388 ****        -9.5000  -2.5000  22.7500 Du        
   2389 ****        -9.5000  -2.5000  23.0000 Du        
   2390 ****        -9.5000  -2.5000  23.2500 Du        
   2391 ****        -9.5000  -2.5000  23.5000 Du        
   2392 ****        -9.5000  -2.5000  23.7500 Du        
   2393 ****        -9.5000  -2.2500  22.7500 Du        
   2394 ****        -9.5000  -2.2500  23.0000 Du        
   2395 ****        -9.5000  -2.2500  23.2500 Du        
   2396 ****        -9.5000  -2.2500  23.5000 Du        
   2397 ****        -9.5000  -2.2500  23.7500 Du        
   2398 ****        -9.5000  -2.0000  22.7500 Du        
   2399 ****        -9.5000  -2.0000  23.0000 Du        
   2400 ****        -9.5000  -2.0000  23.2500 Du        
   2401 ****        -9.5000  -2.0000  23.5000 Du        
   2402 ****        -9.5000  -2.0000  23.7500 Du        
   2403 ****        -9.5000  -1.7500  22.7500 Du        
   2404 ****        -9.5000  -1.7500  23.0000 Du        
   2405 ****        -9.5000  -1.7500  23.2500 Du        
   2406 ****        -9.5000  -1.7500  23.5000 Du        
   2407 ****        -9.5000  -1.7500  23.7500 Du        
   2408 ****        -9.5000  -1.5000  23.0000 Du        
   2409 ****        -9.5000  -1.5000  23.2500 Du        
   2410 ****        -9.5000  -1.5000  23.5000 Du        
   2411 ****        -9.5000  -1.5000  23.7500 Du        
   2412 ****        -9.5000  -1.2500  23.0000 Du        
   2413 ****        -9.5000  -1.2500  23.2500 Du        
   2414 ****        -9.5000  -1.2500  23.5000 Du        
   2415 ****        -9.5000  -1.2500  23.7500 Du        
   2416 ****        -9.5000  -1.0000  23.0000 Du        
   2417 ****        -9.5000  -1.0000  23.2500 Du        
   2418 ****        -9.5000  -1.0000  23.5000 Du        
   2419 ****        -9.5000  -1.0000  23.7500 Du        
   2420 ****        -9.5000  -0.7500  23.0000 Du        
   2421 ****        -9.5000  -0.7500  23.2500 Du        
   2422 ****        -9.5000  -0.7500  23.5000 Du        
   2423 ****        -9.5000  -0.7500  23.7500 Du        
   2424 ****        -9.5000  -0.5000  23.7500 Du        
   2425 ****        -9.2500 -10.0000  14.2500 Du        
   2426 ****        -9.2500 -10.0000  14.5000 Du        
   2427 ****        -9.2500 -10.0000  14.7500 Du        
   2428 ****        -9.2500 -10.0000  15.0000 Du        
   2429 ****        -9.2500 -10.0000  15.2500 Du        
   2430 ****        -9.2500 -10.0000  15.5000 Du        
   2431 ****        -9.2500 -10.0000  15.7500 Du        
   2432 ****        -9.2500 -10.0000  16.0000 Du        
   2433 ****        -9.2500 -10.0000  16.2500 Du        
   2434 ****        -9.2500 -10.0000  16.5000 Du        
   2435 ****        -9.2500 -10.0000  16.7500 Du        
   2436 ****        -9.2500 -10.0000  17.0000 Du        
   2437 ****        -9.2500 -10.0000  17.2500 Du        
   2438 ****        -9.2500 -10.0000  17.5000 Du        
   2439 ****        -9.2500 -10.0000  17.7500 Du        
   2440 ****        -9.2500 -10.0000  18.0000 Du        
   2441 ****        -9.2500  -9.7500  13.7500 Du        
   2442 ****        -9.2500  -9.7500  14.0000 Du        
   2443 ****        -9.2500  -9.7500  14.2500 Du        
   2444 ****        -9.2500  -9.7500  14.5000 Du        
   2445 ****        -9.2500  -9.7500  14.7500 Du        
   2446 ****        -9.2500  -9.7500  15.0000 Du        
   2447 ****        -9.2500  -9.7500  15.2500 Du        
   2448 ****        -9.2500  -9.7500  15.5000 Du        
   2449 ****        -9.2500  -9.7500  15.7500 Du        
   2450 ****        -9.2500  -9.7500  16.0000 Du        
   2451 ****        -9.2500  -9.7500  16.2500 Du        
   2452 ****        -9.2500  -9.7500  16.5000 Du        
   2453 ****        -9.2500  -9.7500  16.7500 Du        
   2454 ****        -9.2500  -9.7500  17.0000 Du        
   2455 ****        -9.2500  -9.7500  17.2500 Du        
   2456 ****        -9.2500  -9.7500  17.5000 Du        
   2457 ****        -9.2500  -9.7500  17.7500 Du        
   2458 ****        -9.2500  -9.7500  18.0000 Du        
   2459 ****        -9.2500  -9.7500  18.5000 Du        
   2460 ****        -9.2500  -9.7500  18.7500 Du        
   2461 ****        -9.2500  -9.5000  13.7500 Du        
   2462 ****        -9.2500  -9.5000  14.0000 Du        
   2463 ****        -9.2500  -9.5000  14.2500 Du        
   2464 ****        -9.2500  -9.5000  14.5000 Du        
   2465 ****        -9.2500  -9.5000  14.7500 Du        
   2466 ****        -9.2500  -9.5000  15.0000 Du        
   2467 ****        -9.2500  -9.5000  15.2500 Du        
   2468 ****        -9.2500  -9.5000  15.5000 Du        
   2469 ****        -9.2500  -9.5000  15.7500 Du        
   2470 ****        -9.2500  -9.5000  16.0000 Du        
   2471 ****        -9.2500  -9.5000  16.2500 Du        
   2472 ****        -9.2500  -9.5000  16.5000 Du        
   2473 ****        -9.2500  -9.5000  16.7500 Du        
   2474 ****        -9.2500  -9.5000  17.0000 Du        
   2475 ****        -9.2500  -9.5000  17.2500 Du        
   2476 ****        -9.2500  -9.5000  17.5000 Du        
   2477 ****        -9.2500  -9.5000  17.7500 Du        
   2478 ****        -9.2500  -9.5000  18.0000 Du        
   2479 ****        -9.2500  -9.5000  18.2500 Du        
   2480 ****        -9.2500  -9.5000  18.5000 Du        
   2481 ****        -9.2500  -9.5000  18.7500 Du        
   2482 ****        -9.2500  -9.5000  19.0000 Du        
   2483 ****        -9.2500  -9.5000  19.2500 Du        
   2484 ****        -9.2500  -9.5000  19.5000 Du        
   2485 ****        -9.2500  -9.5000  19.7500 Du        
   2486 ****        -9.2500  -9.5000  20.0000 Du        
   2487 ****        -9.2500  -9.5000  20.2500 Du        
   2488 ****        -9.2500  -9.2500  13.7500 Du        
   2489 ****        -9.2500  -9.2500  14.0000 Du        
   2490 ****        -9.2500  -9.2500  14.2500 Du        
   2491 ****        -9.2500  -9.2500  14.5000 Du        
   2492 ****        -9.2500  -9.2500  14.7500 Du        
   2493 ****        -9.2500  -9.2500  15.0000 Du        
   2494 ****        -9.2500  -9.2500  15.2500 Du        
   2495 ****        -9.2500  -9.2500  15.5000 Du        
   2496 ****        -9.2500  -9.2500  15.7500 Du        
   2497 ****        -9.2500  -9.2500  16.0000 Du        
   2498 ****        -9.2500  -9.2500  16.2500 Du        
   2499 ****        -9.2500  -9.2500  16.5000 Du        
   2500 ****        -9.2500  -9.2500  16.7500 Du        
   2501 ****        -9.2500  -9.2500  17.0000 Du        
   2502 ****        -9.2500  -9.2500  17.2500 Du        
   2503 ****        -9.2500  -9.2500  17.5000 Du        
   2504 ****        -9.2500  -9.2500  17.7500 Du        
   2505 ****        -9.2500  -9.2500  18.0000 Du        
   2506 ****        -9.2500  -9.2500  18.2500 Du        
   2507 ****        -9.2500  -9.2500  18.5000 Du        
   2508 ****        -9.2500  -9.2500  18.7500 Du        
   2509 ****        -9.2500  -9.2500  19.0000 Du        
   2510 ****        -9.2500  -9.2500  19.2500 Du        
   2511 ****        -9.2500  -9.2500  19.5000 Du        
   2512 ****        -9.2500  -9.2500  19.7500 Du        
   2513 ****        -9.2500  -9.2500  20.0000 Du        
   2514 ****        -9.2500  -9.2500  20.2500 Du        
   2515 ****        -9.2500  -9.2500  20.5000 Du        
   2516 ****        -9.2500  -9.0000  14.0000 Du        
   2517 ****        -9.2500  -9.0000  14.2500 Du        
   2518 ****        -9.2500  -9.0000  14.5000 Du        
   2519 ****        -9.2500  -9.0000  14.7500 Du        
   2520 ****        -9.2500  -9.0000  15.0000 Du        
   2521 ****        -9.2500  -9.0000  15.2500 Du        
   2522 ****        -9.2500  -9.0000  15.5000 Du        
   2523 ****        -9.2500  -9.0000  15.7500 Du        
   2524 ****        -9.2500  -9.0000  16.0000 Du        
   2525 ****        -9.2500  -9.0000  16.2500 Du        
   2526 ****        -9.2500  -9.0000  16.5000 Du        
   2527 ****        -9.2500  -9.0000  16.7500 Du        
   2528 ****        -9.2500  -9.0000  17.0000 Du        
   2529 ****        -9.2500  -9.0000  17.2500 Du        
   2530 ****        -9.2500  -9.0000  17.5000 Du        
   2531 ****        -9.2500  -9.0000  17.7500 Du        
   2532 ****        -9.2500  -9.0000  18.0000 Du        
   2533 ****        -9.2500  -9.0000  18.2500 Du        
   2534 ****        -9.2500  -9.0000  18.5000 Du        
   2535 ****        -9.2500  -9.0000  18.7500 Du        
   2536 ****        -9.2500  -9.0000  19.0000 Du        
   2537 ****        -9.2500  -9.0000  19.2500 Du        
   2538 ****        -9.2500  -9.0000  19.5000 Du        
   2539 ****        -9.2500  -9.0000  19.7500 Du        
   2540 ****        -9.2500  -9.0000  20.0000 Du        
   2541 ****        -9.2500  -9.0000  20.2500 Du        
   2542 ****        -9.2500  -8.7500  14.5000 Du        
   2543 ****        -9.2500  -8.7500  14.7500 Du        
   2544 ****        -9.2500  -8.7500  15.0000 Du        
   2545 ****        -9.2500  -8.7500  15.2500 Du        
   2546 ****        -9.2500  -8.7500  15.5000 Du        
   2547 ****        -9.2500  -8.7500  15.7500 Du        
   2548 ****        -9.2500  -8.7500  16.0000 Du        
   2549 ****        -9.2500  -8.7500  16.2500 Du        
   2550 ****        -9.2500  -8.7500  16.5000 Du        
   2551 ****        -9.2500  -8.7500  16.7500 Du        
   2552 ****        -9.2500  -8.7500  17.0000 Du        
   2553 ****        -9.2500  -8.7500  17.2500 Du        
   2554 ****        -9.2500  -8.7500  17.5000 Du        
   2555 ****        -9.2500  -8.7500  17.7500 Du        
   2556 ****        -9.2500  -8.7500  18.0000 Du        
   2557 ****        -9.2500  -8.7500  18.2500 Du        
   2558 ****        -9.2500  -8.7500  18.5000 Du        
   2559 ****        -9.2500  -8.7500  18.7500 Du        
   2560 ****        -9.2500  -8.7500  19.0000 Du        
   2561 ****        -9.2500  -8.7500  19.2500 Du        
   2562 ****        -9.2500  -8.7500  19.5000 Du        
   2563 ****        -9.2500  -8.7500  19.7500 Du        
   2564 ****        -9.2500  -8.7500  20.0000 Du        
   2565 ****        -9.2500  -8.7500  20.2500 Du        
   2566 ****        -9.2500  -8.5000  15.0000 Du        
   2567 ****        -9.2500  -8.5000  15.2500 Du        
   2568 ****        -9.2500  -8.5000  15.5000 Du        
   2569 ****        -9.2500  -8.5000  15.7500 Du        
   2570 ****        -9.2500  -8.5000  16.0000 Du        
   2571 ****        -9.2500  -8.5000  16.2500 Du        
   2572 ****        -9.2500  -8.5000  16.5000 Du        
   2573 ****        -9.2500  -8.5000  16.7500 Du        
   2574 ****        -9.2500  -8.5000  17.0000 Du        
   2575 ****        -9.2500  -8.5000  17.2500 Du        
   2576 ****        -9.2500  -8.5000  17.5000 Du        
   2577 ****        -9.2500  -8.5000  17.7500 Du        
   2578 ****        -9.2500  -8.5000  18.0000 Du        
   2579 ****        -9.2500  -8.5000  18.2500 Du        
   2580 ****        -9.2500  -8.5000  18.5000 Du        
   2581 ****        -9.2500  -8.5000  18.7500 Du        
   2582 ****        -9.2500  -8.5000  19.0000 Du        
   2583 ****        -9.2500  -8.5000  19.2500 Du        
   2584 ****        -9.2500  -8.5000  19.5000 Du        
   2585 ****        -9.2500  -8.5000  19.7500 Du        
   2586 ****        -9.2500  -8.5000  20.0000 Du        
   2587 ****        -9.2500  -8.2500  15.0000 Du        
   2588 ****        -9.2500  -8.2500  15.2500 Du        
   2589 ****        -9.2500  -8.2500  15.5000 Du        
   2590 ****        -9.2500  -8.2500  15.7500 Du        
   2591 ****        -9.2500  -8.2500  16.0000 Du        
   2592 ****        -9.2500  -8.2500  16.2500 Du        
   2593 ****        -9.2500  -8.2500  16.5000 Du        
   2594 ****        -9.2500  -8.2500  16.7500 Du        
   2595 ****        -9.2500  -8.2500  17.0000 Du        
   2596 ****        -9.2500  -8.2500  17.2500 Du        
   2597 ****        -9.2500  -8.2500  17.5000 Du        
   2598 ****        -9.2500  -8.2500  17.7500 Du        
   2599 ****        -9.2500  -8.2500  18.0000 Du        
   2600 ****        -9.2500  -8.2500  18.2500 Du        
   2601 ****        -9.2500  -8.2500  18.5000 Du        
   2602 ****        -9.2500  -8.2500  18.7500 Du        
   2603 ****        -9.2500  -8.2500  19.0000 Du        
   2604 ****        -9.2500  -8.2500  19.2500 Du        
   2605 ****        -9.2500  -8.2500  19.5000 Du        
   2606 ****        -9.2500  -8.2500  19.7500 Du        
   2607 ****        -9.2500  -8.2500  20.0000 Du        
   2608 ****        -9.2500  -8.0000  15.2500 Du        
   2609 ****        -9.2500  -8.0000  15.5000 Du        
   2610 ****        -9.2500  -8.0000  15.7500 Du        
   2611 ****        -9.2500  -8.0000  16.0000 Du        
   2612 ****        -9.2500  -8.0000  16.2500 Du        
   2613 ****        -9.2500  -8.0000  16.5000 Du        
   2614 ****        -9.2500  -8.0000  16.7500 Du        
   2615 ****        -9.2500  -8.0000  17.0000 Du        
   2616 ****        -9.2500  -8.0000  17.2500 Du        
   2617 ****        -9.2500  -8.0000  17.5000 Du        
   2618 ****        -9.2500  -8.0000  17.7500 Du        
   2619 ****        -9.2500  -8.0000  18.0000 Du        
   2620 ****        -9.2500  -8.0000  18.2500 Du        
   2621 ****        -9.2500  -8.0000  18.5000 Du        
   2622 ****        -9.2500  -8.0000  18.7500 Du        
   2623 ****        -9.2500  -8.0000  19.0000 Du        
   2624 ****        -9.2500  -8.0000  19.2500 Du        
   2625 ****        -9.2500  -8.0000  19.5000 Du        
   2626 ****        -9.2500  -8.0000  19.7500 Du        
   2627 ****        -9.2500  -7.7500  15.5000 Du        
   2628 ****        -9.2500  -7.7500  15.7500 Du        
   2629 ****        -9.2500  -7.7500  16.0000 Du        
   2630 ****        -9.2500  -7.7500  16.2500 Du        
   2631 ****        -9.2500  -7.7500  16.5000 Du        
   2632 ****        -9.2500  -7.7500  16.7500 Du        
   2633 ****        -9.2500  -7.7500  17.0000 Du        
   2634 ****        -9.2500  -7.7500  17.2500 Du        
   2635 ****        -9.2500  -7.7500  17.5000 Du        
   2636 ****        -9.2500  -7.7500  17.7500 Du        
   2637 ****        -9.2500  -7.7500  18.0000 Du        
   2638 ****        -9.2500  -7.7500  18.2500 Du        
   2639 ****        -9.2500  -7.7500  18.5000 Du        
   2640 ****        -9.2500  -7.7500  18.7500 Du        
   2641 ****        -9.2500  -7.7500  19.0000 Du        
   2642 ****        -9.2500  -7.7500  19.2500 Du        
   2643 ****        -9.2500  -7.7500  19.5000 Du        
   2644 ****        -9.2500  -7.7500  19.7500 Du        
   2645 ****        -9.2500  -7.5000  15.7500 Du        
   2646 ****        -9.2500  -7.5000  16.0000 Du        
   2647 ****        -9.2500  -7.5000  16.2500 Du        
   2648 ****        -9.2500  -7.5000  16.5000 Du        
   2649 ****        -9.2500  -7.5000  16.7500 Du        
   2650 ****        -9.2500  -7.5000  17.0000 Du        
   2651 ****        -9.2500  -7.5000  17.2500 Du        
   2652 ****        -9.2500  -7.5000  17.5000 Du        
   2653 ****        -9.2500  -7.5000  17.7500 Du        
   2654 ****        -9.2500  -7.5000  18.0000 Du        
   2655 ****        -9.2500  -7.5000  18.2500 Du        
   2656 ****        -9.2500  -7.5000  18.5000 Du        
   2657 ****        -9.2500  -7.5000  18.7500 Du        
   2658 ****        -9.2500  -7.5000  19.0000 Du        
   2659 ****        -9.2500  -7.5000  19.2500 Du        
   2660 ****        -9.2500  -7.5000  19.5000 Du        
   2661 ****        -9.2500  -7.2500  15.7500 Du        
   2662 ****        -9.2500  -7.2500  16.0000 Du        
   2663 ****        -9.2500  -7.2500  16.2500 Du        
   2664 ****        -9.2500  -7.2500  16.5000 Du        
   2665 ****        -9.2500  -7.2500  16.7500 Du        
   2666 ****        -9.2500  -7.2500  17.0000 Du        
   2667 ****        -9.2500  -7.2500  17.2500 Du        
   2668 ****        -9.2500  -7.2500  17.5000 Du        
   2669 ****        -9.2500  -7.2500  17.7500 Du        
   2670 ****        -9.2500  -7.2500  18.0000 Du        
   2671 ****        -9.2500  -7.2500  18.2500 Du        
   2672 ****        -9.2500  -7.2500  18.5000 Du        
   2673 ****        -9.2500  -7.2500  18.7500 Du        
   2674 ****        -9.2500  -7.2500  19.0000 Du        
   2675 ****        -9.2500  -7.2500  19.2500 Du        
   2676 ****        -9.2500  -7.2500  19.5000 Du        
   2677 ****        -9.2500  -7.0000  15.7500 Du        
   2678 ****        -9.2500  -7.0000  16.0000 Du        
   2679 ****        -9.2500  -7.0000  16.2500 Du        
   2680 ****        -9.2500  -7.0000  16.5000 Du        
   2681 ****        -9.2500  -7.0000  16.7500 Du        
   2682 ****        -9.2500  -7.0000  17.0000 Du        
   2683 ****        -9.2500  -7.0000  17.2500 Du        
   2684 ****        -9.2500  -7.0000  17.5000 Du        
   2685 ****        -9.2500  -7.0000  17.7500 Du        
   2686 ****        -9.2500  -7.0000  18.0000 Du        
   2687 ****        -9.2500  -7.0000  18.2500 Du        
   2688 ****        -9.2500  -7.0000  18.5000 Du        
   2689 ****        -9.2500  -7.0000  18.7500 Du        
   2690 ****        -9.2500  -7.0000  19.0000 Du        
   2691 ****        -9.2500  -7.0000  19.2500 Du        
   2692 ****        -9.2500  -7.0000  19.5000 Du        
   2693 ****        -9.2500  -6.7500  15.7500 Du        
   2694 ****        -9.2500  -6.7500  16.0000 Du        
   2695 ****        -9.2500  -6.7500  16.2500 Du        
   2696 ****        -9.2500  -6.7500  16.5000 Du        
   2697 ****        -9.2500  -6.7500  16.7500 Du        
   2698 ****        -9.2500  -6.7500  17.0000 Du        
   2699 ****        -9.2500  -6.7500  17.2500 Du        
   2700 ****        -9.2500  -6.7500  17.5000 Du        
   2701 ****        -9.2500  -6.7500  17.7500 Du        
   2702 ****        -9.2500  -6.7500  18.0000 Du        
   2703 ****        -9.2500  -6.7500  18.2500 Du        
   2704 ****        -9.2500  -6.7500  18.5000 Du        
   2705 ****        -9.2500  -6.7500  18.7500 Du        
   2706 ****        -9.2500  -6.7500  19.0000 Du        
   2707 ****        -9.2500  -6.7500  19.2500 Du        
   2708 ****        -9.2500  -6.7500  19.5000 Du        
   2709 ****        -9.2500  -6.5000  15.7500 Du        
   2710 ****        -9.2500  -6.5000  16.0000 Du        
   2711 ****        -9.2500  -6.5000  16.2500 Du        
   2712 ****        -9.2500  -6.5000  16.5000 Du        
   2713 ****        -9.2500  -6.5000  16.7500 Du        
   2714 ****        -9.2500  -6.5000  17.0000 Du        
   2715 ****        -9.2500  -6.5000  17.2500 Du        
   2716 ****        -9.2500  -6.5000  17.5000 Du        
   2717 ****        -9.2500  -6.5000  17.7500 Du        
   2718 ****        -9.2500  -6.5000  18.0000 Du        
   2719 ****        -9.2500  -6.5000  18.2500 Du        
   2720 ****        -9.2500  -6.5000  18.5000 Du        
   2721 ****        -9.2500  -6.5000  18.7500 Du        
   2722 ****        -9.2500  -6.5000  19.0000 Du        
   2723 ****        -9.2500  -6.5000  19.2500 Du        
   2724 ****        -9.2500  -6.2500  15.7500 Du        
   2725 ****        -9.2500  -6.2500  16.0000 Du        
   2726 ****        -9.2500  -6.2500  16.2500 Du        
   2727 ****        -9.2500  -6.2500  16.5000 Du        
   2728 ****        -9.2500  -6.2500  16.7500 Du        
   2729 ****        -9.2500  -6.2500  17.0000 Du        
   2730 ****        -9.2500  -6.2500  17.2500 Du        
   2731 ****        -9.2500  -6.2500  17.5000 Du        
   2732 ****        -9.2500  -6.2500  17.7500 Du        
   2733 ****        -9.2500  -6.2500  18.0000 Du        
   2734 ****        -9.2500  -6.2500  18.2500 Du        
   2735 ****        -9.2500  -6.2500  18.5000 Du        
   2736 ****        -9.2500  -6.2500  18.7500 Du        
   2737 ****        -9.2500  -6.2500  19.0000 Du        
   2738 ****        -9.2500  -6.2500  19.2500 Du        
   2739 ****        -9.2500  -6.0000  15.7500 Du        
   2740 ****        -9.2500  -6.0000  16.0000 Du        
   2741 ****        -9.2500  -6.0000  16.2500 Du        
   2742 ****        -9.2500  -6.0000  16.5000 Du        
   2743 ****        -9.2500  -6.0000  16.7500 Du        
   2744 ****        -9.2500  -6.0000  17.0000 Du        
   2745 ****        -9.2500  -6.0000  17.2500 Du        
   2746 ****        -9.2500  -6.0000  17.5000 Du        
   2747 ****        -9.2500  -6.0000  17.7500 Du        
   2748 ****        -9.2500  -6.0000  18.0000 Du        
   2749 ****        -9.2500  -6.0000  18.2500 Du        
   2750 ****        -9.2500  -6.0000  18.5000 Du        
   2751 ****        -9.2500  -6.0000  18.7500 Du        
   2752 ****        -9.2500  -6.0000  19.0000 Du        
   2753 ****        -9.2500  -6.0000  19.2500 Du        
   2754 ****        -9.2500  -5.7500  16.0000 Du        
   2755 ****        -9.2500  -5.7500  17.0000 Du        
   2756 ****        -9.2500  -5.7500  17.2500 Du        
   2757 ****        -9.2500  -5.7500  17.5000 Du        
   2758 ****        -9.2500  -5.7500  17.7500 Du        
   2759 ****        -9.2500  -5.7500  18.0000 Du        
   2760 ****        -9.2500  -5.7500  18.2500 Du        
   2761 ****        -9.2500  -5.7500  18.5000 Du        
   2762 ****        -9.2500  -5.7500  18.7500 Du        
   2763 ****        -9.2500  -5.7500  19.0000 Du        
   2764 ****        -9.2500  -5.5000  18.7500 Du        
   2765 ****        -9.2500  -3.2500  23.5000 Du        
   2766 ****        -9.2500  -3.2500  23.7500 Du        
   2767 ****        -9.2500  -3.0000  23.2500 Du        
   2768 ****        -9.2500  -3.0000  23.5000 Du        
   2769 ****        -9.2500  -3.0000  23.7500 Du        
   2770 ****        -9.2500  -2.7500  22.7500 Du        
   2771 ****        -9.2500  -2.7500  23.0000 Du        
   2772 ****        -9.2500  -2.7500  23.2500 Du        
   2773 ****        -9.2500  -2.7500  23.5000 Du        
   2774 ****        -9.2500  -2.7500  23.7500 Du        
   2775 ****        -9.2500  -2.5000  22.5000 Du        
   2776 ****        -9.2500  -2.5000  22.7500 Du        
   2777 ****        -9.2500  -2.5000  23.0000 Du        
   2778 ****        -9.2500  -2.5000  23.2500 Du        
   2779 ****        -9.2500  -2.5000  23.5000 Du        
   2780 ****        -9.2500  -2.5000  23.7500 Du        
   2781 ****        -9.2500  -2.2500  22.5000 Du        
   2782 ****        -9.2500  -2.2500  22.7500 Du        
   2783 ****        -9.2500  -2.2500  23.0000 Du        
   2784 ****        -9.2500  -2.2500  23.2500 Du        
   2785 ****        -9.2500  -2.2500  23.5000 Du        
   2786 ****        -9.2500  -2.2500  23.7500 Du        
   2787 ****        -9.2500  -2.0000  22.5000 Du        
   2788 ****        -9.2500  -2.0000  22.7500 Du        
   2789 ****        -9.2500  -2.0000  23.0000 Du        
   2790 ****        -9.2500  -2.0000  23.2500 Du        
   2791 ****        -9.2500  -2.0000  23.5000 Du        
   2792 ****        -9.2500  -2.0000  23.7500 Du        
   2793 ****        -9.2500  -1.7500  22.5000 Du        
   2794 ****        -9.2500  -1.7500  22.7500 Du        
   2795 ****        -9.2500  -1.7500  23.0000 Du        
   2796 ****        -9.2500  -1.7500  23.2500 Du        
   2797 ****        -9.2500  -1.7500  23.5000 Du        
   2798 ****        -9.2500  -1.7500  23.7500 Du        
   2799 ****        -9.2500  -1.5000  22.5000 Du        
   2800 ****        -9.2500  -1.5000  22.7500 Du        
   2801 ****        -9.2500  -1.5000  23.0000 Du        
   2802 ****        -9.2500  -1.5000  23.2500 Du        
   2803 ****        -9.2500  -1.5000  23.5000 Du        
   2804 ****        -9.2500  -1.5000  23.7500 Du        
   2805 ****        -9.2500  -1.2500  22.7500 Du        
   2806 ****        -9.2500  -1.2500  23.0000 Du        
   2807 ****        -9.2500  -1.2500  23.2500 Du        
   2808 ****        -9.2500  -1.2500  23.5000 Du        
   2809 ****        -9.2500  -1.2500  23.7500 Du        
   2810 ****        -9.2500  -1.0000  22.7500 Du        
   2811 ****        -9.2500  -1.0000  23.0000 Du        
   2812 ****        -9.2500  -1.0000  23.2500 Du        
   2813 ****        -9.2500  -1.0000  23.5000 Du        
   2814 ****        -9.2500  -1.0000  23.7500 Du        
   2815 ****        -9.2500  -0.7500  23.0000 Du        
   2816 ****        -9.2500  -0.7500  23.2500 Du        
   2817 ****        -9.2500  -0.7500  23.5000 Du        
   2818 ****        -9.2500  -0.7500  23.7500 Du        
   2819 ****        -9.2500  -0.5000  23.5000 Du        
   2820 ****        -9.2500  -0.5000  23.7500 Du        
   2821 ****        -9.2500  -0.2500  23.5000 Du        
   2822 ****        -9.2500  -0.2500  23.7500 Du        
   2823 ****        -9.2500   0.0000  23.7500 Du        
   2824 ****        -9.0000 -10.0000  14.0000 Du        
   2825 ****        -9.0000 -10.0000  14.2500 Du        
   2826 ****        -9.0000 -10.0000  14.5000 Du        
   2827 ****        -9.0000 -10.0000  14.7500 Du        
   2828 ****        -9.0000 -10.0000  15.0000 Du        
   2829 ****        -9.0000 -10.0000  15.2500 Du        
   2830 ****        -9.0000 -10.0000  15.5000 Du        
   2831 ****        -9.0000 -10.0000  15.7500 Du        
   2832 ****        -9.0000 -10.0000  16.0000 Du        
   2833 ****        -9.0000 -10.0000  16.2500 Du        
   2834 ****        -9.0000 -10.0000  16.5000 Du        
   2835 ****        -9.0000 -10.0000  16.7500 Du        
   2836 ****        -9.0000 -10.0000  17.2500 Du        
   2837 ****        -9.0000 -10.0000  17.5000 Du        
   2838 ****        -9.0000 -10.0000  17.7500 Du        
   2839 ****        -9.0000 -10.0000  18.0000 Du        
   2840 ****        -9.0000 -10.0000  18.2500 Du        
   2841 ****        -9.0000 -10.0000  18.5000 Du        
   2842 ****        -9.0000 -10.0000  18.7500 Du        
   2843 ****        -9.0000 -10.0000  19.0000 Du        
   2844 ****        -9.0000 -10.0000  19.2500 Du        
   2845 ****        -9.0000 -10.0000  19.5000 Du        
   2846 ****        -9.0000 -10.0000  19.7500 Du        
   2847 ****        -9.0000 -10.0000  20.0000 Du        
   2848 ****        -9.0000 -10.0000  20.2500 Du        
   2849 ****        -9.0000  -9.7500  13.7500 Du        
   2850 ****        -9.0000  -9.7500  14.0000 Du        
   2851 ****        -9.0000  -9.7500  14.2500 Du        
   2852 ****        -9.0000  -9.7500  14.5000 Du        
   2853 ****        -9.0000  -9.7500  14.7500 Du        
   2854 ****        -9.0000  -9.7500  15.0000 Du        
   2855 ****        -9.0000  -9.7500  15.2500 Du        
   2856 ****        -9.0000  -9.7500  15.5000 Du        
   2857 ****        -9.0000  -9.7500  15.7500 Du        
   2858 ****        -9.0000  -9.7500  16.0000 Du        
   2859 ****        -9.0000  -9.7500  16.2500 Du        
   2860 ****        -9.0000  -9.7500  18.0000 Du        
   2861 ****        -9.0000  -9.7500  18.2500 Du        
   2862 ****        -9.0000  -9.7500  18.5000 Du        
   2863 ****        -9.0000  -9.7500  18.7500 Du        
   2864 ****        -9.0000  -9.7500  19.0000 Du        
   2865 ****        -9.0000  -9.7500  19.2500 Du        
   2866 ****        -9.0000  -9.7500  19.5000 Du        
   2867 ****        -9.0000  -9.7500  19.7500 Du        
   2868 ****        -9.0000  -9.7500  20.0000 Du        
   2869 ****        -9.0000  -9.7500  20.2500 Du        
   2870 ****        -9.0000  -9.7500  20.5000 Du        
   2871 ****        -9.0000  -9.7500  20.7500 Du        
   2872 ****        -9.0000  -9.5000  13.7500 Du        
   2873 ****        -9.0000  -9.5000  14.0000 Du        
   2874 ****        -9.0000  -9.5000  14.2500 Du        
   2875 ****        -9.0000  -9.5000  14.5000 Du        
   2876 ****        -9.0000  -9.5000  14.7500 Du        
   2877 ****        -9.0000  -9.5000  15.0000 Du        
   2878 ****        -9.0000  -9.5000  15.2500 Du        
   2879 ****        -9.0000  -9.5000  15.5000 Du        
   2880 ****        -9.0000  -9.5000  15.7500 Du        
   2881 ****        -9.0000  -9.5000  16.0000 Du        
   2882 ****        -9.0000  -9.5000  18.0000 Du        
   2883 ****        -9.0000  -9.5000  18.2500 Du        
   2884 ****        -9.0000  -9.5000  18.5000 Du        
   2885 ****        -9.0000  -9.5000  18.7500 Du        
   2886 ****        -9.0000  -9.5000  19.0000 Du        
   2887 ****        -9.0000  -9.5000  19.2500 Du        
   2888 ****        -9.0000  -9.5000  19.5000 Du        
   2889 ****        -9.0000  -9.5000  19.7500 Du        
   2890 ****        -9.0000  -9.5000  20.0000 Du        
   2891 ****        -9.0000  -9.5000  20.2500 Du        
   2892 ****        -9.0000  -9.5000  20.5000 Du        
   2893 ****        -9.0000  -9.5000  20.7500 Du        
   2894 ****        -9.0000  -9.2500  13.7500 Du        
   2895 ****        -9.0000  -9.2500  14.0000 Du        
   2896 ****        -9.0000  -9.2500  14.2500 Du        
   2897 ****        -9.0000  -9.2500  14.5000 Du        
   2898 ****        -9.0000  -9.2500  14.7500 Du        
   2899 ****        -9.0000  -9.2500  15.0000 Du        
   2900 ****        -9.0000  -9.2500  15.2500 Du        
   2901 ****        -9.0000  -9.2500  15.5000 Du        
   2902 ****        -9.0000  -9.2500  15.7500 Du        
   2903 ****        -9.0000  -9.2500  16.0000 Du        
   2904 ****        -9.0000  -9.2500  16.2500 Du        
   2905 ****        -9.0000  -9.2500  18.0000 Du        
   2906 ****        -9.0000  -9.2500  18.2500 Du        
   2907 ****        -9.0000  -9.2500  18.5000 Du        
   2908 ****        -9.0000  -9.2500  18.7500 Du        
   2909 ****        -9.0000  -9.2500  19.0000 Du        
   2910 ****        -9.0000  -9.2500  19.2500 Du        
   2911 ****        -9.0000  -9.2500  19.5000 Du        
   2912 ****        -9.0000  -9.2500  19.7500 Du        
   2913 ****        -9.0000  -9.2500  20.0000 Du        
   2914 ****        -9.0000  -9.2500  20.2500 Du        
   2915 ****        -9.0000  -9.2500  20.5000 Du        
   2916 ****        -9.0000  -9.2500  20.7500 Du        
   2917 ****        -9.0000  -9.0000  14.0000 Du        
   2918 ****        -9.0000  -9.0000  14.2500 Du        
   2919 ****        -9.0000  -9.0000  14.5000 Du        
   2920 ****        -9.0000  -9.0000  14.7500 Du        
   2921 ****        -9.0000  -9.0000  15.0000 Du        
   2922 ****        -9.0000  -9.0000  15.2500 Du        
   2923 ****        -9.0000  -9.0000  15.5000 Du        
   2924 ****        -9.0000  -9.0000  15.7500 Du        
   2925 ****        -9.0000  -9.0000  16.0000 Du        
   2926 ****        -9.0000  -9.0000  16.2500 Du        
   2927 ****        -9.0000  -9.0000  17.7500 Du        
   2928 ****        -9.0000  -9.0000  18.0000 Du        
   2929 ****        -9.0000  -9.0000  18.2500 Du        
   2930 ****        -9.0000  -9.0000  18.5000 Du        
   2931 ****        -9.0000  -9.0000  18.7500 Du        
   2932 ****        -9.0000  -9.0000  19.0000 Du        
   2933 ****        -9.0000  -9.0000  19.2500 Du        
   2934 ****        -9.0000  -9.0000  19.5000 Du        
   2935 ****        -9.0000  -9.0000  19.7500 Du        
   2936 ****        -9.0000  -9.0000  20.0000 Du        
   2937 ****        -9.0000  -9.0000  20.2500 Du        
   2938 ****        -9.0000  -9.0000  20.5000 Du        
   2939 ****        -9.0000  -8.7500  14.7500 Du        
   2940 ****        -9.0000  -8.7500  15.0000 Du        
   2941 ****        -9.0000  -8.7500  15.2500 Du        
   2942 ****        -9.0000  -8.7500  15.5000 Du        
   2943 ****        -9.0000  -8.7500  15.7500 Du        
   2944 ****        -9.0000  -8.7500  16.0000 Du        
   2945 ****        -9.0000  -8.7500  16.2500 Du        
   2946 ****        -9.0000  -8.7500  16.5000 Du        
   2947 ****        -9.0000  -8.7500  16.7500 Du        
   2948 ****        -9.0000  -8.7500  17.0000 Du        
   2949 ****        -9.0000  -8.7500  17.2500 Du        
   2950 ****        -9.0000  -8.7500  17.5000 Du        
   2951 ****        -9.0000  -8.7500  17.7500 Du        
   2952 ****        -9.0000  -8.7500  18.0000 Du        
   2953 ****        -9.0000  -8.7500  18.2500 Du        
   2954 ****        -9.0000  -8.7500  18.5000 Du        
   2955 ****        -9.0000  -8.7500  18.7500 Du        
   2956 ****        -9.0000  -8.7500  19.0000 Du        
   2957 ****        -9.0000  -8.7500  19.2500 Du        
   2958 ****        -9.0000  -8.7500  19.5000 Du        
   2959 ****        -9.0000  -8.7500  19.7500 Du        
   2960 ****        -9.0000  -8.7500  20.0000 Du        
   2961 ****        -9.0000  -8.7500  20.2500 Du        
   2962 ****        -9.0000  -8.7500  20.5000 Du        
   2963 ****        -9.0000  -8.5000  15.2500 Du        
   2964 ****        -9.0000  -8.5000  15.5000 Du        
   2965 ****        -9.0000  -8.5000  15.7500 Du        
   2966 ****        -9.0000  -8.5000  16.0000 Du        
   2967 ****        -9.0000  -8.5000  16.2500 Du        
   2968 ****        -9.0000  -8.5000  16.5000 Du        
   2969 ****        -9.0000  -8.5000  16.7500 Du        
   2970 ****        -9.0000  -8.5000  17.0000 Du        
   2971 ****        -9.0000  -8.5000  17.2500 Du        
   2972 ****        -9.0000  -8.5000  17.5000 Du        
   2973 ****        -9.0000  -8.5000  17.7500 Du        
   2974 ****        -9.0000  -8.5000  18.0000 Du        
   2975 ****        -9.0000  -8.5000  18.2500 Du        
   2976 ****        -9.0000  -8.5000  18.5000 Du        
   2977 ****        -9.0000  -8.5000  18.7500 Du        
   2978 ****        -9.0000  -8.5000  19.0000 Du        
   2979 ****        -9.0000  -8.5000  19.2500 Du        
   2980 ****        -9.0000  -8.5000  19.5000 Du        
   2981 ****        -9.0000  -8.5000  19.7500 Du        
   2982 ****        -9.0000  -8.5000  20.0000 Du        
   2983 ****        -9.0000  -8.5000  20.2500 Du        
   2984 ****        -9.0000  -8.2500  15.5000 Du        
   2985 ****        -9.0000  -8.2500  15.7500 Du        
   2986 ****        -9.0000  -8.2500  16.0000 Du        
   2987 ****        -9.0000  -8.2500  16.2500 Du        
   2988 ****        -9.0000  -8.2500  16.5000 Du        
   2989 ****        -9.0000  -8.2500  16.7500 Du        
   2990 ****        -9.0000  -8.2500  17.0000 Du        
   2991 ****        -9.0000  -8.2500  17.2500 Du        
   2992 ****        -9.0000  -8.2500  17.5000 Du        
   2993 ****        -9.0000  -8.2500  17.7500 Du        
   2994 ****        -9.0000  -8.2500  18.0000 Du        
   2995 ****        -9.0000  -8.2500  18.2500 Du        
   2996 ****        -9.0000  -8.2500  18.5000 Du        
   2997 ****        -9.0000  -8.2500  18.7500 Du        
   2998 ****        -9.0000  -8.2500  19.0000 Du        
   2999 ****        -9.0000  -8.2500  19.2500 Du        
   3000 ****        -9.0000  -8.2500  19.5000 Du        
   3001 ****        -9.0000  -8.2500  19.7500 Du        
   3002 ****        -9.0000  -8.2500  20.0000 Du        
   3003 ****        -9.0000  -8.2500  20.2500 Du        
   3004 ****        -9.0000  -8.0000  15.5000 Du        
   3005 ****        -9.0000  -8.0000  15.7500 Du        
   3006 ****        -9.0000  -8.0000  16.0000 Du        
   3007 ****        -9.0000  -8.0000  16.2500 Du        
   3008 ****        -9.0000  -8.0000  16.5000 Du        
   3009 ****        -9.0000  -8.0000  16.7500 Du        
   3010 ****        -9.0000  -8.0000  17.0000 Du        
   3011 ****        -9.0000  -8.0000  17.2500 Du        
   3012 ****        -9.0000  -8.0000  17.5000 Du        
   3013 ****        -9.0000  -8.0000  17.7500 Du        
   3014 ****        -9.0000  -8.0000  18.0000 Du        
   3015 ****        -9.0000  -8.0000  18.2500 Du        
   3016 ****        -9.0000  -8.0000  18.5000 Du        
   3017 ****        -9.0000  -8.0000  18.7500 Du        
   3018 ****        -9.0000  -8.0000  19.0000 Du        
   3019 ****        -9.0000  -8.0000  19.2500 Du        
   3020 ****        -9.0000  -8.0000  19.5000 Du        
   3021 ****        -9.0000  -8.0000  19.7500 Du        
   3022 ****        -9.0000  -8.0000  20.0000 Du        
   3023 ****        -9.0000  -7.7500  15.7500 Du        
   3024 ****        -9.0000  -7.7500  16.0000 Du        
   3025 ****        -9.0000  -7.7500  16.2500 Du        
   3026 ****        -9.0000  -7.7500  16.5000 Du        
   3027 ****        -9.0000  -7.7500  16.7500 Du        
   3028 ****        -9.0000  -7.7500  17.0000 Du        
   3029 ****        -9.0000  -7.7500  17.2500 Du        
   3030 ****        -9.0000  -7.7500  17.5000 Du        
   3031 ****        -9.0000  -7.7500  17.7500 Du        
   3032 ****        -9.0000  -7.7500  18.0000 Du        
   3033 ****        -9.0000  -7.7500  18.2500 Du        
   3034 ****        -9.0000  -7.7500  18.5000 Du        
   3035 ****        -9.0000  -7.7500  18.7500 Du        
   3036 ****        -9.0000  -7.7500  19.0000 Du        
   3037 ****        -9.0000  -7.7500  19.2500 Du        
   3038 ****        -9.0000  -7.7500  19.5000 Du        
   3039 ****        -9.0000  -7.7500  19.7500 Du        
   3040 ****        -9.0000  -7.7500  20.0000 Du        
   3041 ****        -9.0000  -7.5000  16.0000 Du        
   3042 ****        -9.0000  -7.5000  16.2500 Du        
   3043 ****        -9.0000  -7.5000  16.5000 Du        
   3044 ****        -9.0000  -7.5000  16.7500 Du        
   3045 ****        -9.0000  -7.5000  17.0000 Du        
   3046 ****        -9.0000  -7.5000  17.2500 Du        
   3047 ****        -9.0000  -7.5000  17.5000 Du        
   3048 ****        -9.0000  -7.5000  17.7500 Du        
   3049 ****        -9.0000  -7.5000  18.0000 Du        
   3050 ****        -9.0000  -7.5000  18.2500 Du        
   3051 ****        -9.0000  -7.5000  18.5000 Du        
   3052 ****        -9.0000  -7.5000  18.7500 Du        
   3053 ****        -9.0000  -7.5000  19.0000 Du        
   3054 ****        -9.0000  -7.5000  19.2500 Du        
   3055 ****        -9.0000  -7.5000  19.5000 Du        
   3056 ****        -9.0000  -7.5000  19.7500 Du        
   3057 ****        -9.0000  -7.2500  16.0000 Du        
   3058 ****        -9.0000  -7.2500  16.2500 Du        
   3059 ****        -9.0000  -7.2500  16.5000 Du        
   3060 ****        -9.0000  -7.2500  16.7500 Du        
   3061 ****        -9.0000  -7.2500  17.0000 Du        
   3062 ****        -9.0000  -7.2500  17.2500 Du        
   3063 ****        -9.0000  -7.2500  17.5000 Du        
   3064 ****        -9.0000  -7.2500  17.7500 Du        
   3065 ****        -9.0000  -7.2500  18.0000 Du        
   3066 ****        -9.0000  -7.2500  18.2500 Du        
   3067 ****        -9.0000  -7.2500  18.5000 Du        
   3068 ****        -9.0000  -7.2500  18.7500 Du        
   3069 ****        -9.0000  -7.2500  19.0000 Du        
   3070 ****        -9.0000  -7.2500  19.2500 Du        
   3071 ****        -9.0000  -7.2500  19.5000 Du        
   3072 ****        -9.0000  -7.2500  19.7500 Du        
   3073 ****        -9.0000  -7.0000  16.0000 Du        
   3074 ****        -9.0000  -7.0000  16.2500 Du        
   3075 ****        -9.0000  -7.0000  16.5000 Du        
   3076 ****        -9.0000  -7.0000  16.7500 Du        
   3077 ****        -9.0000  -7.0000  17.0000 Du        
   3078 ****        -9.0000  -7.0000  17.2500 Du        
   3079 ****        -9.0000  -7.0000  17.5000 Du        
   3080 ****        -9.0000  -7.0000  17.7500 Du        
   3081 ****        -9.0000  -7.0000  18.0000 Du        
   3082 ****        -9.0000  -7.0000  18.2500 Du        
   3083 ****        -9.0000  -7.0000  18.5000 Du        
   3084 ****        -9.0000  -7.0000  18.7500 Du        
   3085 ****        -9.0000  -7.0000  19.0000 Du        
   3086 ****        -9.0000  -7.0000  19.2500 Du        
   3087 ****        -9.0000  -7.0000  19.5000 Du        
   3088 ****        -9.0000  -7.0000  19.7500 Du        
   3089 ****        -9.0000  -6.7500  16.0000 Du        
   3090 ****        -9.0000  -6.7500  16.2500 Du        
   3091 ****        -9.0000  -6.7500  16.5000 Du        
   3092 ****        -9.0000  -6.7500  16.7500 Du        
   3093 ****        -9.0000  -6.7500  17.0000 Du        
   3094 ****        -9.0000  -6.7500  17.2500 Du        
   3095 ****        -9.0000  -6.7500  17.5000 Du        
   3096 ****        -9.0000  -6.7500  17.7500 Du        
   3097 ****        -9.0000  -6.7500  18.0000 Du        
   3098 ****        -9.0000  -6.7500  18.2500 Du        
   3099 ****        -9.0000  -6.7500  18.5000 Du        
   3100 ****        -9.0000  -6.7500  18.7500 Du        
   3101 ****        -9.0000  -6.7500  19.0000 Du        
   3102 ****        -9.0000  -6.7500  19.2500 Du        
   3103 ****        -9.0000  -6.7500  19.5000 Du        
   3104 ****        -9.0000  -6.7500  19.7500 Du        
   3105 ****        -9.0000  -6.5000  16.0000 Du        
   3106 ****        -9.0000  -6.5000  16.2500 Du        
   3107 ****        -9.0000  -6.5000  16.5000 Du        
   3108 ****        -9.0000  -6.5000  16.7500 Du        
   3109 ****        -9.0000  -6.5000  17.0000 Du        
   3110 ****        -9.0000  -6.5000  17.2500 Du        
   3111 ****        -9.0000  -6.5000  17.5000 Du        
   3112 ****        -9.0000  -6.5000  17.7500 Du        
   3113 ****        -9.0000  -6.5000  18.0000 Du        
   3114 ****        -9.0000  -6.5000  18.2500 Du        
   3115 ****        -9.0000  -6.5000  18.5000 Du        
   3116 ****        -9.0000  -6.5000  18.7500 Du        
   3117 ****        -9.0000  -6.5000  19.0000 Du        
   3118 ****        -9.0000  -6.5000  19.2500 Du        
   3119 ****        -9.0000  -6.5000  19.5000 Du        
   3120 ****        -9.0000  -6.2500  16.0000 Du        
   3121 ****        -9.0000  -6.2500  16.2500 Du        
   3122 ****        -9.0000  -6.2500  16.5000 Du        
   3123 ****        -9.0000  -6.2500  16.7500 Du        
   3124 ****        -9.0000  -6.2500  17.0000 Du        
   3125 ****        -9.0000  -6.2500  17.2500 Du        
   3126 ****        -9.0000  -6.2500  17.5000 Du        
   3127 ****        -9.0000  -6.2500  17.7500 Du        
   3128 ****        -9.0000  -6.2500  18.0000 Du        
   3129 ****        -9.0000  -6.2500  18.2500 Du        
   3130 ****        -9.0000  -6.2500  18.5000 Du        
   3131 ****        -9.0000  -6.2500  18.7500 Du        
   3132 ****        -9.0000  -6.2500  19.0000 Du        
   3133 ****        -9.0000  -6.2500  19.2500 Du        
   3134 ****        -9.0000  -6.2500  19.5000 Du        
   3135 ****        -9.0000  -6.0000  16.7500 Du        
   3136 ****        -9.0000  -6.0000  17.0000 Du        
   3137 ****        -9.0000  -6.0000  17.2500 Du        
   3138 ****        -9.0000  -6.0000  17.5000 Du        
   3139 ****        -9.0000  -6.0000  17.7500 Du        
   3140 ****        -9.0000  -6.0000  18.0000 Du        
   3141 ****        -9.0000  -6.0000  18.2500 Du        
   3142 ****        -9.0000  -6.0000  18.5000 Du        
   3143 ****        -9.0000  -6.0000  18.7500 Du        
   3144 ****        -9.0000  -6.0000  19.0000 Du        
   3145 ****        -9.0000  -6.0000  19.2500 Du        
   3146 ****        -9.0000  -6.0000  19.5000 Du        
   3147 ****        -9.0000  -5.7500  17.2500 Du        
   3148 ****        -9.0000  -5.7500  17.7500 Du        
   3149 ****        -9.0000  -5.7500  18.0000 Du        
   3150 ****        -9.0000  -5.7500  18.2500 Du        
   3151 ****        -9.0000  -5.7500  18.5000 Du        
   3152 ****        -9.0000  -5.7500  18.7500 Du        
   3153 ****        -9.0000  -5.7500  19.0000 Du        
   3154 ****        -9.0000  -5.7500  19.2500 Du        
   3155 ****        -9.0000  -5.5000  18.5000 Du        
   3156 ****        -9.0000  -5.5000  18.7500 Du        
   3157 ****        -9.0000  -5.5000  19.0000 Du        
   3158 ****        -9.0000  -5.5000  19.2500 Du        
   3159 ****        -9.0000  -5.2500  18.7500 Du        
   3160 ****        -9.0000  -5.2500  19.0000 Du        
   3161 ****        -9.0000  -5.0000  19.0000 Du        
   3162 ****        -9.0000  -3.5000  23.7500 Du        
   3163 ****        -9.0000  -3.2500  23.2500 Du        
   3164 ****        -9.0000  -3.2500  23.5000 Du        
   3165 ****        -9.0000  -3.2500  23.7500 Du        
   3166 ****        -9.0000  -3.0000  22.7500 Du        
   3167 ****        -9.0000  -3.0000  23.0000 Du        
   3168 ****        -9.0000  -3.0000  23.2500 Du        
   3169 ****        -9.0000  -3.0000  23.5000 Du        
   3170 ****        -9.0000  -3.0000  23.7500 Du        
   3171 ****        -9.0000  -2.7500  22.5000 Du        
   3172 ****        -9.0000  -2.7500  22.7500 Du        
   3173 ****        -9.0000  -2.7500  23.0000 Du        
   3174 ****        -9.0000  -2.7500  23.2500 Du        
   3175 ****        -9.0000  -2.7500  23.5000 Du        
   3176 ****        -9.0000  -2.7500  23.7500 Du        
   3177 ****        -9.0000  -2.5000  22.2500 Du        
   3178 ****        -9.0000  -2.5000  22.5000 Du        
   3179 ****        -9.0000  -2.5000  22.7500 Du        
   3180 ****        -9.0000  -2.5000  23.0000 Du        
   3181 ****        -9.0000  -2.5000  23.2500 Du        
   3182 ****        -9.0000  -2.5000  23.5000 Du        
   3183 ****        -9.0000  -2.5000  23.7500 Du        
   3184 ****        -9.0000  -2.2500  22.0000 Du        
   3185 ****        -9.0000  -2.2500  22.2500 Du        
   3186 ****        -9.0000  -2.2500  22.5000 Du        
   3187 ****        -9.0000  -2.2500  22.7500 Du        
   3188 ****        -9.0000  -2.2500  23.0000 Du        
   3189 ****        -9.0000  -2.2500  23.2500 Du        
   3190 ****        -9.0000  -2.2500  23.5000 Du        
   3191 ****        -9.0000  -2.2500  23.7500 Du        
   3192 ****        -9.0000  -2.0000  22.0000 Du        
   3193 ****        -9.0000  -2.0000  22.2500 Du        
   3194 ****        -9.0000  -2.0000  22.5000 Du        
   3195 ****        -9.0000  -2.0000  22.7500 Du        
   3196 ****        -9.0000  -2.0000  23.0000 Du        
   3197 ****        -9.0000  -2.0000  23.2500 Du        
   3198 ****        -9.0000  -2.0000  23.5000 Du        
   3199 ****        -9.0000  -2.0000  23.7500 Du        
   3200 ****        -9.0000  -1.7500  22.2500 Du        
   3201 ****        -9.0000  -1.7500  22.5000 Du        
   3202 ****        -9.0000  -1.7500  22.7500 Du        
   3203 ****        -9.0000  -1.7500  23.0000 Du        
   3204 ****        -9.0000  -1.7500  23.2500 Du        
   3205 ****        -9.0000  -1.7500  23.5000 Du        
   3206 ****        -9.0000  -1.7500  23.7500 Du        
   3207 ****        -9.0000  -1.5000  22.5000 Du        
   3208 ****        -9.0000  -1.5000  22.7500 Du        
   3209 ****        -9.0000  -1.5000  23.0000 Du        
   3210 ****        -9.0000  -1.5000  23.2500 Du        
   3211 ****        -9.0000  -1.5000  23.5000 Du        
   3212 ****        -9.0000  -1.5000  23.7500 Du        
   3213 ****        -9.0000  -1.2500  22.7500 Du        
   3214 ****        -9.0000  -1.2500  23.0000 Du        
   3215 ****        -9.0000  -1.2500  23.2500 Du        
   3216 ****        -9.0000  -1.2500  23.5000 Du        
   3217 ****        -9.0000  -1.2500  23.7500 Du        
   3218 ****        -9.0000  -1.0000  23.0000 Du        
   3219 ****        -9.0000  -1.0000  23.2500 Du        
   3220 ****        -9.0000  -1.0000  23.5000 Du        
   3221 ****        -9.0000  -1.0000  23.7500 Du        
   3222 ****        -9.0000  -0.7500  23.2500 Du        
   3223 ****        -9.0000  -0.7500  23.5000 Du        
   3224 ****        -9.0000  -0.7500  23.7500 Du        
   3225 ****        -9.0000  -0.5000  23.5000 Du        
   3226 ****        -9.0000  -0.5000  23.7500 Du        
   3227 ****        -9.0000  -0.2500  23.5000 Du        
   3228 ****        -9.0000  -0.2500  23.7500 Du        
   3229 ****        -9.0000   0.0000  23.7500 Du        
   3230 ****        -9.0000   0.2500  23.7500 Du        
   3231 ****        -8.7500 -10.0000  14.0000 Du        
   3232 ****        -8.7500 -10.0000  14.2500 Du        
   3233 ****        -8.7500 -10.0000  14.5000 Du        
   3234 ****        -8.7500 -10.0000  14.7500 Du        
   3235 ****        -8.7500 -10.0000  15.0000 Du        
   3236 ****        -8.7500 -10.0000  15.2500 Du        
   3237 ****        -8.7500 -10.0000  15.5000 Du        
   3238 ****        -8.7500 -10.0000  18.7500 Du        
   3239 ****        -8.7500 -10.0000  19.0000 Du        
   3240 ****        -8.7500 -10.0000  19.2500 Du        
   3241 ****        -8.7500 -10.0000  19.5000 Du        
   3242 ****        -8.7500 -10.0000  19.7500 Du        
   3243 ****        -8.7500 -10.0000  20.0000 Du        
   3244 ****        -8.7500 -10.0000  20.2500 Du        
   3245 ****        -8.7500 -10.0000  20.5000 Du        
   3246 ****        -8.7500 -10.0000  20.7500 Du        
   3247 ****        -8.7500  -9.7500  14.0000 Du        
   3248 ****        -8.7500  -9.7500  14.2500 Du        
   3249 ****        -8.7500  -9.7500  14.5000 Du        
   3250 ****        -8.7500  -9.7500  14.7500 Du        
   3251 ****        -8.7500  -9.7500  15.0000 Du        
   3252 ****        -8.7500  -9.7500  15.2500 Du        
   3253 ****        -8.7500  -9.7500  15.5000 Du        
   3254 ****        -8.7500  -9.7500  19.0000 Du        
   3255 ****        -8.7500  -9.7500  19.2500 Du        
   3256 ****        -8.7500  -9.7500  19.5000 Du        
   3257 ****        -8.7500  -9.7500  19.7500 Du        
   3258 ****        -8.7500  -9.7500  20.0000 Du        
   3259 ****        -8.7500  -9.7500  20.2500 Du        
   3260 ****        -8.7500  -9.7500  20.5000 Du        
   3261 ****        -8.7500  -9.7500  20.7500 Du        
   3262 ****        -8.7500  -9.7500  21.0000 Du        
   3263 ****        -8.7500  -9.5000  14.0000 Du        
   3264 ****        -8.7500  -9.5000  14.2500 Du        
   3265 ****        -8.7500  -9.5000  14.5000 Du        
   3266 ****        -8.7500  -9.5000  14.7500 Du        
   3267 ****        -8.7500  -9.5000  15.0000 Du        
   3268 ****        -8.7500  -9.5000  15.2500 Du        
   3269 ****        -8.7500  -9.5000  19.0000 Du        
   3270 ****        -8.7500  -9.5000  19.2500 Du        
   3271 ****        -8.7500  -9.5000  19.5000 Du        
   3272 ****        -8.7500  -9.5000  19.7500 Du        
   3273 ****        -8.7500  -9.5000  20.0000 Du        
   3274 ****        -8.7500  -9.5000  20.2500 Du        
   3275 ****        -8.7500  -9.5000  20.5000 Du        
   3276 ****        -8.7500  -9.5000  20.7500 Du        
   3277 ****        -8.7500  -9.2500  14.0000 Du        
   3278 ****        -8.7500  -9.2500  14.2500 Du        
   3279 ****        -8.7500  -9.2500  14.5000 Du        
   3280 ****        -8.7500  -9.2500  14.7500 Du        
   3281 ****        -8.7500  -9.2500  15.0000 Du        
   3282 ****        -8.7500  -9.2500  15.2500 Du        
   3283 ****        -8.7500  -9.2500  19.0000 Du        
   3284 ****        -8.7500  -9.2500  19.2500 Du        
   3285 ****        -8.7500  -9.2500  19.5000 Du        
   3286 ****        -8.7500  -9.2500  19.7500 Du        
   3287 ****        -8.7500  -9.2500  20.0000 Du        
   3288 ****        -8.7500  -9.2500  20.2500 Du        
   3289 ****        -8.7500  -9.2500  20.5000 Du        
   3290 ****        -8.7500  -9.2500  20.7500 Du        
   3291 ****        -8.7500  -9.0000  14.7500 Du        
   3292 ****        -8.7500  -9.0000  15.0000 Du        
   3293 ****        -8.7500  -9.0000  15.2500 Du        
   3294 ****        -8.7500  -9.0000  19.0000 Du        
   3295 ****        -8.7500  -9.0000  19.2500 Du        
   3296 ****        -8.7500  -9.0000  19.5000 Du        
   3297 ****        -8.7500  -9.0000  19.7500 Du        
   3298 ****        -8.7500  -9.0000  20.0000 Du        
   3299 ****        -8.7500  -9.0000  20.2500 Du        
   3300 ****        -8.7500  -9.0000  20.5000 Du        
   3301 ****        -8.7500  -8.7500  15.2500 Du        
   3302 ****        -8.7500  -8.7500  18.7500 Du        
   3303 ****        -8.7500  -8.7500  19.0000 Du        
   3304 ****        -8.7500  -8.7500  19.2500 Du        
   3305 ****        -8.7500  -8.7500  19.5000 Du        
   3306 ****        -8.7500  -8.7500  19.7500 Du        
   3307 ****        -8.7500  -8.7500  20.0000 Du        
   3308 ****        -8.7500  -8.7500  20.2500 Du        
   3309 ****        -8.7500  -8.7500  20.5000 Du        
   3310 ****        -8.7500  -8.5000  18.7500 Du        
   3311 ****        -8.7500  -8.5000  19.0000 Du        
   3312 ****        -8.7500  -8.5000  19.2500 Du        
   3313 ****        -8.7500  -8.5000  19.5000 Du        
   3314 ****        -8.7500  -8.5000  19.7500 Du        
   3315 ****        -8.7500  -8.5000  20.0000 Du        
   3316 ****        -8.7500  -8.5000  20.2500 Du        
   3317 ****        -8.7500  -8.2500  18.0000 Du        
   3318 ****        -8.7500  -8.2500  18.2500 Du        
   3319 ****        -8.7500  -8.2500  18.5000 Du        
   3320 ****        -8.7500  -8.2500  18.7500 Du        
   3321 ****        -8.7500  -8.2500  19.0000 Du        
   3322 ****        -8.7500  -8.2500  19.2500 Du        
   3323 ****        -8.7500  -8.2500  19.5000 Du        
   3324 ****        -8.7500  -8.2500  19.7500 Du        
   3325 ****        -8.7500  -8.2500  20.0000 Du        
   3326 ****        -8.7500  -8.2500  20.2500 Du        
   3327 ****        -8.7500  -8.0000  16.0000 Du        
   3328 ****        -8.7500  -8.0000  16.2500 Du        
   3329 ****        -8.7500  -8.0000  16.5000 Du        
   3330 ****        -8.7500  -8.0000  16.7500 Du        
   3331 ****        -8.7500  -8.0000  17.0000 Du        
   3332 ****        -8.7500  -8.0000  17.2500 Du        
   3333 ****        -8.7500  -8.0000  17.5000 Du        
   3334 ****        -8.7500  -8.0000  17.7500 Du        
   3335 ****        -8.7500  -8.0000  18.0000 Du        
   3336 ****        -8.7500  -8.0000  18.2500 Du        
   3337 ****        -8.7500  -8.0000  18.5000 Du        
   3338 ****        -8.7500  -8.0000  18.7500 Du        
   3339 ****        -8.7500  -8.0000  19.0000 Du        
   3340 ****        -8.7500  -8.0000  19.2500 Du        
   3341 ****        -8.7500  -8.0000  19.5000 Du        
   3342 ****        -8.7500  -8.0000  19.7500 Du        
   3343 ****        -8.7500  -8.0000  20.0000 Du        
   3344 ****        -8.7500  -8.0000  20.2500 Du        
   3345 ****        -8.7500  -7.7500  16.0000 Du        
   3346 ****        -8.7500  -7.7500  16.2500 Du        
   3347 ****        -8.7500  -7.7500  16.5000 Du        
   3348 ****        -8.7500  -7.7500  16.7500 Du        
   3349 ****        -8.7500  -7.7500  17.0000 Du        
   3350 ****        -8.7500  -7.7500  17.2500 Du        
   3351 ****        -8.7500  -7.7500  17.5000 Du        
   3352 ****        -8.7500  -7.7500  17.7500 Du        
   3353 ****        -8.7500  -7.7500  18.0000 Du        
   3354 ****        -8.7500  -7.7500  18.2500 Du        
   3355 ****        -8.7500  -7.7500  18.5000 Du        
   3356 ****        -8.7500  -7.7500  18.7500 Du        
   3357 ****        -8.7500  -7.7500  19.0000 Du        
   3358 ****        -8.7500  -7.7500  19.2500 Du        
   3359 ****        -8.7500  -7.7500  19.5000 Du        
   3360 ****        -8.7500  -7.7500  19.7500 Du        
   3361 ****        -8.7500  -7.7500  20.0000 Du        
   3362 ****        -8.7500  -7.5000  16.2500 Du        
   3363 ****        -8.7500  -7.5000  16.5000 Du        
   3364 ****        -8.7500  -7.5000  16.7500 Du        
   3365 ****        -8.7500  -7.5000  17.0000 Du        
   3366 ****        -8.7500  -7.5000  17.2500 Du        
   3367 ****        -8.7500  -7.5000  17.5000 Du        
   3368 ****        -8.7500  -7.5000  17.7500 Du        
   3369 ****        -8.7500  -7.5000  18.0000 Du        
   3370 ****        -8.7500  -7.5000  18.2500 Du        
   3371 ****        -8.7500  -7.5000  18.5000 Du        
   3372 ****        -8.7500  -7.5000  18.7500 Du        
   3373 ****        -8.7500  -7.5000  19.0000 Du        
   3374 ****        -8.7500  -7.5000  19.2500 Du        
   3375 ****        -8.7500  -7.5000  19.5000 Du        
   3376 ****        -8.7500  -7.5000  19.7500 Du        
   3377 ****        -8.7500  -7.5000  20.0000 Du        
   3378 ****        -8.7500  -7.2500  16.2500 Du        
   3379 ****        -8.7500  -7.2500  16.5000 Du        
   3380 ****        -8.7500  -7.2500  16.7500 Du        
   3381 ****        -8.7500  -7.2500  17.0000 Du        
   3382 ****        -8.7500  -7.2500  17.2500 Du        
   3383 ****        -8.7500  -7.2500  17.5000 Du        
   3384 ****        -8.7500  -7.2500  17.7500 Du        
   3385 ****        -8.7500  -7.2500  18.0000 Du        
   3386 ****        -8.7500  -7.2500  18.2500 Du        
   3387 ****        -8.7500  -7.2500  18.5000 Du        
   3388 ****        -8.7500  -7.2500  18.7500 Du        
   3389 ****        -8.7500  -7.2500  19.0000 Du        
   3390 ****        -8.7500  -7.2500  19.2500 Du        
   3391 ****        -8.7500  -7.2500  19.5000 Du        
   3392 ****        -8.7500  -7.2500  19.7500 Du        
   3393 ****        -8.7500  -7.2500  20.0000 Du        
   3394 ****        -8.7500  -7.0000  16.0000 Du        
   3395 ****        -8.7500  -7.0000  16.2500 Du        
   3396 ****        -8.7500  -7.0000  16.5000 Du        
   3397 ****        -8.7500  -7.0000  16.7500 Du        
   3398 ****        -8.7500  -7.0000  17.0000 Du        
   3399 ****        -8.7500  -7.0000  17.2500 Du        
   3400 ****        -8.7500  -7.0000  17.5000 Du        
   3401 ****        -8.7500  -7.0000  17.7500 Du        
   3402 ****        -8.7500  -7.0000  18.0000 Du        
   3403 ****        -8.7500  -7.0000  18.2500 Du        
   3404 ****        -8.7500  -7.0000  18.5000 Du        
   3405 ****        -8.7500  -7.0000  18.7500 Du        
   3406 ****        -8.7500  -7.0000  19.0000 Du        
   3407 ****        -8.7500  -7.0000  19.2500 Du        
   3408 ****        -8.7500  -7.0000  19.5000 Du        
   3409 ****        -8.7500  -7.0000  19.7500 Du        
   3410 ****        -8.7500  -7.0000  20.0000 Du        
   3411 ****        -8.7500  -6.7500  16.0000 Du        
   3412 ****        -8.7500  -6.7500  16.2500 Du        
   3413 ****        -8.7500  -6.7500  16.5000 Du        
   3414 ****        -8.7500  -6.7500  16.7500 Du        
   3415 ****        -8.7500  -6.7500  17.0000 Du        
   3416 ****        -8.7500  -6.7500  17.2500 Du        
   3417 ****        -8.7500  -6.7500  17.5000 Du        
   3418 ****        -8.7500  -6.7500  17.7500 Du        
   3419 ****        -8.7500  -6.7500  18.0000 Du        
   3420 ****        -8.7500  -6.7500  18.2500 Du        
   3421 ****        -8.7500  -6.7500  18.5000 Du        
   3422 ****        -8.7500  -6.7500  18.7500 Du        
   3423 ****        -8.7500  -6.7500  19.0000 Du        
   3424 ****        -8.7500  -6.7500  19.2500 Du        
   3425 ****        -8.7500  -6.7500  19.5000 Du        
   3426 ****        -8.7500  -6.7500  19.7500 Du        
   3427 ****        -8.7500  -6.7500  20.0000 Du        
   3428 ****        -8.7500  -6.5000  16.2500 Du        
   3429 ****        -8.7500  -6.5000  16.5000 Du        
   3430 ****        -8.7500  -6.5000  16.7500 Du        
   3431 ****        -8.7500  -6.5000  17.0000 Du        
   3432 ****        -8.7500  -6.5000  17.2500 Du        
   3433 ****        -8.7500  -6.5000  17.5000 Du        
   3434 ****        -8.7500  -6.5000  17.7500 Du        
   3435 ****        -8.7500  -6.5000  18.0000 Du        
   3436 ****        -8.7500  -6.5000  18.2500 Du        
   3437 ****        -8.7500  -6.5000  18.5000 Du        
   3438 ****        -8.7500  -6.5000  18.7500 Du        
   3439 ****        -8.7500  -6.5000  19.0000 Du        
   3440 ****        -8.7500  -6.5000  19.2500 Du        
   3441 ****        -8.7500  -6.5000  19.5000 Du        
   3442 ****        -8.7500  -6.5000  19.7500 Du        
   3443 ****        -8.7500  -6.2500  16.5000 Du        
   3444 ****        -8.7500  -6.2500  16.7500 Du        
   3445 ****        -8.7500  -6.2500  17.0000 Du        
   3446 ****        -8.7500  -6.2500  17.2500 Du        
   3447 ****        -8.7500  -6.2500  17.5000 Du        
   3448 ****        -8.7500  -6.2500  17.7500 Du        
   3449 ****        -8.7500  -6.2500  18.0000 Du        
   3450 ****        -8.7500  -6.2500  18.2500 Du        
   3451 ****        -8.7500  -6.2500  18.5000 Du        
   3452 ****        -8.7500  -6.2500  18.7500 Du        
   3453 ****        -8.7500  -6.2500  19.0000 Du        
   3454 ****        -8.7500  -6.2500  19.2500 Du        
   3455 ****        -8.7500  -6.2500  19.5000 Du        
   3456 ****        -8.7500  -6.2500  19.7500 Du        
   3457 ****        -8.7500  -6.0000  17.0000 Du        
   3458 ****        -8.7500  -6.0000  17.2500 Du        
   3459 ****        -8.7500  -6.0000  17.5000 Du        
   3460 ****        -8.7500  -6.0000  17.7500 Du        
   3461 ****        -8.7500  -6.0000  18.0000 Du        
   3462 ****        -8.7500  -6.0000  18.2500 Du        
   3463 ****        -8.7500  -6.0000  18.5000 Du        
   3464 ****        -8.7500  -6.0000  18.7500 Du        
   3465 ****        -8.7500  -6.0000  19.0000 Du        
   3466 ****        -8.7500  -6.0000  19.2500 Du        
   3467 ****        -8.7500  -6.0000  19.5000 Du        
   3468 ****        -8.7500  -6.0000  19.7500 Du        
   3469 ****        -8.7500  -5.7500  17.7500 Du        
   3470 ****        -8.7500  -5.7500  18.0000 Du        
   3471 ****        -8.7500  -5.7500  18.2500 Du        
   3472 ****        -8.7500  -5.7500  18.5000 Du        
   3473 ****        -8.7500  -5.7500  18.7500 Du        
   3474 ****        -8.7500  -5.7500  19.0000 Du        
   3475 ****        -8.7500  -5.7500  19.2500 Du        
   3476 ****        -8.7500  -5.7500  19.5000 Du        
   3477 ****        -8.7500  -5.5000  18.5000 Du        
   3478 ****        -8.7500  -5.5000  18.7500 Du        
   3479 ****        -8.7500  -5.5000  19.0000 Du        
   3480 ****        -8.7500  -5.5000  19.2500 Du        
   3481 ****        -8.7500  -5.2500  18.7500 Du        
   3482 ****        -8.7500  -5.2500  19.0000 Du        
   3483 ****        -8.7500  -5.2500  19.2500 Du        
   3484 ****        -8.7500  -5.0000  19.0000 Du        
   3485 ****        -8.7500  -5.0000  19.2500 Du        
   3486 ****        -8.7500  -3.5000  23.7500 Du        
   3487 ****        -8.7500  -3.2500  22.7500 Du        
   3488 ****        -8.7500  -3.2500  23.0000 Du        
   3489 ****        -8.7500  -3.2500  23.2500 Du        
   3490 ****        -8.7500  -3.2500  23.5000 Du        
   3491 ****        -8.7500  -3.2500  23.7500 Du        
   3492 ****        -8.7500  -3.0000  22.5000 Du        
   3493 ****        -8.7500  -3.0000  22.7500 Du        
   3494 ****        -8.7500  -3.0000  23.0000 Du        
   3495 ****        -8.7500  -3.0000  23.2500 Du        
   3496 ****        -8.7500  -3.0000  23.5000 Du        
   3497 ****        -8.7500  -3.0000  23.7500 Du        
   3498 ****        -8.7500  -2.7500  22.2500 Du        
   3499 ****        -8.7500  -2.7500  22.5000 Du        
   3500 ****        -8.7500  -2.7500  22.7500 Du        
   3501 ****        -8.7500  -2.7500  23.0000 Du        
   3502 ****        -8.7500  -2.7500  23.2500 Du        
   3503 ****        -8.7500  -2.7500  23.5000 Du        
   3504 ****        -8.7500  -2.7500  23.7500 Du        
   3505 ****        -8.7500  -2.5000  22.0000 Du        
   3506 ****        -8.7500  -2.5000  22.2500 Du        
   3507 ****        -8.7500  -2.5000  22.5000 Du        
   3508 ****        -8.7500  -2.5000  22.7500 Du        
   3509 ****        -8.7500  -2.5000  23.0000 Du        
   3510 ****        -8.7500  -2.5000  23.2500 Du        
   3511 ****        -8.7500  -2.5000  23.5000 Du        
   3512 ****        -8.7500  -2.5000  23.7500 Du        
   3513 ****        -8.7500  -2.2500  22.0000 Du        
   3514 ****        -8.7500  -2.2500  22.2500 Du        
   3515 ****        -8.7500  -2.2500  22.5000 Du        
   3516 ****        -8.7500  -2.2500  22.7500 Du        
   3517 ****        -8.7500  -2.2500  23.0000 Du        
   3518 ****        -8.7500  -2.2500  23.2500 Du        
   3519 ****        -8.7500  -2.2500  23.5000 Du        
   3520 ****        -8.7500  -2.2500  23.7500 Du        
   3521 ****        -8.7500  -2.0000  22.0000 Du        
   3522 ****        -8.7500  -2.0000  22.2500 Du        
   3523 ****        -8.7500  -2.0000  22.5000 Du        
   3524 ****        -8.7500  -2.0000  22.7500 Du        
   3525 ****        -8.7500  -2.0000  23.0000 Du        
   3526 ****        -8.7500  -2.0000  23.2500 Du        
   3527 ****        -8.7500  -2.0000  23.5000 Du        
   3528 ****        -8.7500  -2.0000  23.7500 Du        
   3529 ****        -8.7500  -1.7500  22.5000 Du        
   3530 ****        -8.7500  -1.7500  22.7500 Du        
   3531 ****        -8.7500  -1.7500  23.0000 Du        
   3532 ****        -8.7500  -1.7500  23.2500 Du        
   3533 ****        -8.7500  -1.7500  23.5000 Du        
   3534 ****        -8.7500  -1.7500  23.7500 Du        
   3535 ****        -8.7500  -1.5000  22.7500 Du        
   3536 ****        -8.7500  -1.5000  23.0000 Du        
   3537 ****        -8.7500  -1.5000  23.2500 Du        
   3538 ****        -8.7500  -1.5000  23.5000 Du        
   3539 ****        -8.7500  -1.5000  23.7500 Du        
   3540 ****        -8.7500  -1.2500  22.7500 Du        
   3541 ****        -8.7500  -1.2500  23.0000 Du        
   3542 ****        -8.7500  -1.2500  23.2500 Du        
   3543 ****        -8.7500  -1.2500  23.5000 Du        
   3544 ****        -8.7500  -1.2500  23.7500 Du        
   3545 ****        -8.7500  -1.0000  23.0000 Du        
   3546 ****        -8.7500  -1.0000  23.2500 Du        
   3547 ****        -8.7500  -1.0000  23.5000 Du        
   3548 ****        -8.7500  -1.0000  23.7500 Du        
   3549 ****        -8.7500  -0.7500  23.2500 Du        
   3550 ****        -8.7500  -0.7500  23.5000 Du        
   3551 ****        -8.7500  -0.7500  23.7500 Du        
   3552 ****        -8.7500  -0.5000  23.5000 Du        
   3553 ****        -8.7500  -0.5000  23.7500 Du        
   3554 ****        -8.7500  -0.2500  23.7500 Du        
   3555 ****        -8.7500   0.0000  23.7500 Du        
   3556 ****        -8.7500   0.2500  23.7500 Du        
   3557 ****        -8.5000 -10.0000  14.0000 Du        
   3558 ****        -8.5000 -10.0000  14.2500 Du        
   3559 ****        -8.5000 -10.0000  14.5000 Du        
   3560 ****        -8.5000 -10.0000  14.7500 Du        
   3561 ****        -8.5000 -10.0000  15.0000 Du        
   3562 ****        -8.5000 -10.0000  19.5000 Du        
   3563 ****        -8.5000 -10.0000  19.7500 Du        
   3564 ****        -8.5000 -10.0000  20.0000 Du        
   3565 ****        -8.5000 -10.0000  20.2500 Du        
   3566 ****        -8.5000 -10.0000  20.5000 Du        
   3567 ****        -8.5000  -9.7500  14.0000 Du        
   3568 ****        -8.5000  -9.7500  14.2500 Du        
   3569 ****        -8.5000  -9.7500  14.5000 Du        
   3570 ****        -8.5000  -9.7500  14.7500 Du        
   3571 ****        -8.5000  -9.7500  15.0000 Du        
   3572 ****        -8.5000  -9.7500  19.5000 Du        
   3573 ****        -8.5000  -9.7500  19.7500 Du        
   3574 ****        -8.5000  -9.7500  20.0000 Du        
   3575 ****        -8.5000  -9.7500  20.2500 Du        
   3576 ****        -8.5000  -9.7500  20.5000 Du        
   3577 ****        -8.5000  -9.5000  14.2500 Du        
   3578 ****        -8.5000  -9.5000  14.5000 Du        
   3579 ****        -8.5000  -9.5000  14.7500 Du        
   3580 ****        -8.5000  -9.5000  19.5000 Du        
   3581 ****        -8.5000  -9.5000  19.7500 Du        
   3582 ****        -8.5000  -9.5000  20.0000 Du        
   3583 ****        -8.5000  -9.5000  20.2500 Du        
   3584 ****        -8.5000  -9.5000  20.5000 Du        
   3585 ****        -8.5000  -9.2500  19.5000 Du        
   3586 ****        -8.5000  -9.2500  19.7500 Du        
   3587 ****        -8.5000  -9.2500  20.0000 Du        
   3588 ****        -8.5000  -9.2500  20.2500 Du        
   3589 ****        -8.5000  -9.2500  20.5000 Du        
   3590 ****        -8.5000  -9.0000  19.5000 Du        
   3591 ****        -8.5000  -9.0000  19.7500 Du        
   3592 ****        -8.5000  -9.0000  20.0000 Du        
   3593 ****        -8.5000  -9.0000  20.2500 Du        
   3594 ****        -8.5000  -9.0000  20.5000 Du        
   3595 ****        -8.5000  -8.7500  19.5000 Du        
   3596 ****        -8.5000  -8.7500  19.7500 Du        
   3597 ****        -8.5000  -8.7500  20.0000 Du        
   3598 ****        -8.5000  -8.7500  20.2500 Du        
   3599 ****        -8.5000  -8.5000  19.5000 Du        
   3600 ****        -8.5000  -8.5000  19.7500 Du        
   3601 ****        -8.5000  -8.5000  20.0000 Du        
   3602 ****        -8.5000  -8.5000  20.2500 Du        
   3603 ****        -8.5000  -8.2500  19.2500 Du        
   3604 ****        -8.5000  -8.2500  19.5000 Du        
   3605 ****        -8.5000  -8.2500  19.7500 Du        
   3606 ****        -8.5000  -8.2500  20.0000 Du        
   3607 ****        -8.5000  -8.0000  18.7500 Du        
   3608 ****        -8.5000  -8.0000  19.0000 Du        
   3609 ****        -8.5000  -8.0000  19.2500 Du        
   3610 ****        -8.5000  -8.0000  19.5000 Du        
   3611 ****        -8.5000  -8.0000  19.7500 Du        
   3612 ****        -8.5000  -8.0000  20.0000 Du        
   3613 ****        -8.5000  -7.7500  18.0000 Du        
   3614 ****        -8.5000  -7.7500  18.2500 Du        
   3615 ****        -8.5000  -7.7500  18.5000 Du        
   3616 ****        -8.5000  -7.7500  18.7500 Du        
   3617 ****        -8.5000  -7.7500  19.0000 Du        
   3618 ****        -8.5000  -7.7500  19.2500 Du        
   3619 ****        -8.5000  -7.7500  19.5000 Du        
   3620 ****        -8.5000  -7.7500  19.7500 Du        
   3621 ****        -8.5000  -7.7500  20.0000 Du        
   3622 ****        -8.5000  -7.5000  17.0000 Du        
   3623 ****        -8.5000  -7.5000  17.2500 Du        
   3624 ****        -8.5000  -7.5000  17.5000 Du        
   3625 ****        -8.5000  -7.5000  17.7500 Du        
   3626 ****        -8.5000  -7.5000  18.0000 Du        
   3627 ****        -8.5000  -7.5000  18.2500 Du        
   3628 ****        -8.5000  -7.5000  18.5000 Du        
   3629 ****        -8.5000  -7.5000  18.7500 Du        
   3630 ****        -8.5000  -7.5000  19.0000 Du        
   3631 ****        -8.5000  -7.5000  19.2500 Du        
   3632 ****        -8.5000  -7.5000  19.5000 Du        
   3633 ****        -8.5000  -7.5000  19.7500 Du        
   3634 ****        -8.5000  -7.5000  20.0000 Du        
   3635 ****        -8.5000  -7.2500  16.5000 Du        
   3636 ****        -8.5000  -7.2500  16.7500 Du        
   3637 ****        -8.5000  -7.2500  17.0000 Du        
   3638 ****        -8.5000  -7.2500  17.2500 Du        
   3639 ****        -8.5000  -7.2500  17.5000 Du        
   3640 ****        -8.5000  -7.2500  17.7500 Du        
   3641 ****        -8.5000  -7.2500  18.0000 Du        
   3642 ****        -8.5000  -7.2500  18.2500 Du        
   3643 ****        -8.5000  -7.2500  18.5000 Du        
   3644 ****        -8.5000  -7.2500  18.7500 Du        
   3645 ****        -8.5000  -7.2500  19.0000 Du        
   3646 ****        -8.5000  -7.2500  19.2500 Du        
   3647 ****        -8.5000  -7.2500  19.5000 Du        
   3648 ****        -8.5000  -7.2500  19.7500 Du        
   3649 ****        -8.5000  -7.2500  20.0000 Du        
   3650 ****        -8.5000  -7.0000  16.5000 Du        
   3651 ****        -8.5000  -7.0000  16.7500 Du        
   3652 ****        -8.5000  -7.0000  17.0000 Du        
   3653 ****        -8.5000  -7.0000  17.2500 Du        
   3654 ****        -8.5000  -7.0000  17.5000 Du        
   3655 ****        -8.5000  -7.0000  17.7500 Du        
   3656 ****        -8.5000  -7.0000  18.0000 Du        
   3657 ****        -8.5000  -7.0000  18.2500 Du        
   3658 ****        -8.5000  -7.0000  18.5000 Du        
   3659 ****        -8.5000  -7.0000  18.7500 Du        
   3660 ****        -8.5000  -7.0000  19.0000 Du        
   3661 ****        -8.5000  -7.0000  19.2500 Du        
   3662 ****        -8.5000  -7.0000  19.5000 Du        
   3663 ****        -8.5000  -7.0000  19.7500 Du        
   3664 ****        -8.5000  -7.0000  20.0000 Du        
   3665 ****        -8.5000  -6.7500  16.2500 Du        
   3666 ****        -8.5000  -6.7500  16.5000 Du        
   3667 ****        -8.5000  -6.7500  16.7500 Du        
   3668 ****        -8.5000  -6.7500  17.0000 Du        
   3669 ****        -8.5000  -6.7500  17.2500 Du        
   3670 ****        -8.5000  -6.7500  17.5000 Du        
   3671 ****        -8.5000  -6.7500  17.7500 Du        
   3672 ****        -8.5000  -6.7500  18.0000 Du        
   3673 ****        -8.5000  -6.7500  18.2500 Du        
   3674 ****        -8.5000  -6.7500  18.5000 Du        
   3675 ****        -8.5000  -6.7500  18.7500 Du        
   3676 ****        -8.5000  -6.7500  19.0000 Du        
   3677 ****        -8.5000  -6.7500  19.2500 Du        
   3678 ****        -8.5000  -6.7500  19.5000 Du        
   3679 ****        -8.5000  -6.7500  19.7500 Du        
   3680 ****        -8.5000  -6.7500  20.0000 Du        
   3681 ****        -8.5000  -6.5000  16.2500 Du        
   3682 ****        -8.5000  -6.5000  16.5000 Du        
   3683 ****        -8.5000  -6.5000  16.7500 Du        
   3684 ****        -8.5000  -6.5000  17.0000 Du        
   3685 ****        -8.5000  -6.5000  17.2500 Du        
   3686 ****        -8.5000  -6.5000  17.5000 Du        
   3687 ****        -8.5000  -6.5000  17.7500 Du        
   3688 ****        -8.5000  -6.5000  18.0000 Du        
   3689 ****        -8.5000  -6.5000  18.2500 Du        
   3690 ****        -8.5000  -6.5000  18.5000 Du        
   3691 ****        -8.5000  -6.5000  18.7500 Du        
   3692 ****        -8.5000  -6.5000  19.0000 Du        
   3693 ****        -8.5000  -6.5000  19.2500 Du        
   3694 ****        -8.5000  -6.5000  19.5000 Du        
   3695 ****        -8.5000  -6.5000  19.7500 Du        
   3696 ****        -8.5000  -6.5000  20.0000 Du        
   3697 ****        -8.5000  -6.2500  16.7500 Du        
   3698 ****        -8.5000  -6.2500  17.0000 Du        
   3699 ****        -8.5000  -6.2500  17.2500 Du        
   3700 ****        -8.5000  -6.2500  17.5000 Du        
   3701 ****        -8.5000  -6.2500  17.7500 Du        
   3702 ****        -8.5000  -6.2500  18.0000 Du        
   3703 ****        -8.5000  -6.2500  18.2500 Du        
   3704 ****        -8.5000  -6.2500  18.5000 Du        
   3705 ****        -8.5000  -6.2500  18.7500 Du        
   3706 ****        -8.5000  -6.2500  19.0000 Du        
   3707 ****        -8.5000  -6.2500  19.2500 Du        
   3708 ****        -8.5000  -6.2500  19.5000 Du        
   3709 ****        -8.5000  -6.2500  19.7500 Du        
   3710 ****        -8.5000  -6.2500  20.0000 Du        
   3711 ****        -8.5000  -6.0000  17.5000 Du        
   3712 ****        -8.5000  -6.0000  17.7500 Du        
   3713 ****        -8.5000  -6.0000  18.0000 Du        
   3714 ****        -8.5000  -6.0000  18.2500 Du        
   3715 ****        -8.5000  -6.0000  18.5000 Du        
   3716 ****        -8.5000  -6.0000  18.7500 Du        
   3717 ****        -8.5000  -6.0000  19.0000 Du        
   3718 ****        -8.5000  -6.0000  19.2500 Du        
   3719 ****        -8.5000  -6.0000  19.5000 Du        
   3720 ****        -8.5000  -6.0000  19.7500 Du        
   3721 ****        -8.5000  -6.0000  20.0000 Du        
   3722 ****        -8.5000  -5.7500  17.7500 Du        
   3723 ****        -8.5000  -5.7500  18.0000 Du        
   3724 ****        -8.5000  -5.7500  18.2500 Du        
   3725 ****        -8.5000  -5.7500  18.5000 Du        
   3726 ****        -8.5000  -5.7500  18.7500 Du        
   3727 ****        -8.5000  -5.7500  19.0000 Du        
   3728 ****        -8.5000  -5.7500  19.2500 Du        
   3729 ****        -8.5000  -5.7500  19.5000 Du        
   3730 ****        -8.5000  -5.7500  19.7500 Du        
   3731 ****        -8.5000  -5.5000  18.2500 Du        
   3732 ****        -8.5000  -5.5000  18.5000 Du        
   3733 ****        -8.5000  -5.5000  18.7500 Du        
   3734 ****        -8.5000  -5.5000  19.0000 Du        
   3735 ****        -8.5000  -5.5000  19.2500 Du        
   3736 ****        -8.5000  -5.5000  19.5000 Du        
   3737 ****        -8.5000  -5.5000  19.7500 Du        
   3738 ****        -8.5000  -5.2500  18.5000 Du        
   3739 ****        -8.5000  -5.2500  18.7500 Du        
   3740 ****        -8.5000  -5.2500  19.0000 Du        
   3741 ****        -8.5000  -5.2500  19.2500 Du        
   3742 ****        -8.5000  -5.2500  19.5000 Du        
   3743 ****        -8.5000  -5.2500  19.7500 Du        
   3744 ****        -8.5000  -5.0000  19.5000 Du        
   3745 ****        -8.5000  -5.0000  19.7500 Du        
   3746 ****        -8.5000  -3.5000  22.7500 Du        
   3747 ****        -8.5000  -3.5000  23.0000 Du        
   3748 ****        -8.5000  -3.5000  23.2500 Du        
   3749 ****        -8.5000  -3.5000  23.5000 Du        
   3750 ****        -8.5000  -3.5000  23.7500 Du        
   3751 ****        -8.5000  -3.2500  21.5000 Du        
   3752 ****        -8.5000  -3.2500  21.7500 Du        
   3753 ****        -8.5000  -3.2500  22.0000 Du        
   3754 ****        -8.5000  -3.2500  22.2500 Du        
   3755 ****        -8.5000  -3.2500  22.5000 Du        
   3756 ****        -8.5000  -3.2500  22.7500 Du        
   3757 ****        -8.5000  -3.2500  23.0000 Du        
   3758 ****        -8.5000  -3.2500  23.2500 Du        
   3759 ****        -8.5000  -3.2500  23.5000 Du        
   3760 ****        -8.5000  -3.2500  23.7500 Du        
   3761 ****        -8.5000  -3.0000  21.5000 Du        
   3762 ****        -8.5000  -3.0000  21.7500 Du        
   3763 ****        -8.5000  -3.0000  22.0000 Du        
   3764 ****        -8.5000  -3.0000  22.2500 Du        
   3765 ****        -8.5000  -3.0000  22.5000 Du        
   3766 ****        -8.5000  -3.0000  22.7500 Du        
   3767 ****        -8.5000  -3.0000  23.0000 Du        
   3768 ****        -8.5000  -3.0000  23.2500 Du        
   3769 ****        -8.5000  -3.0000  23.5000 Du        
   3770 ****        -8.5000  -3.0000  23.7500 Du        
   3771 ****        -8.5000  -2.7500  21.5000 Du        
   3772 ****        -8.5000  -2.7500  21.7500 Du        
   3773 ****        -8.5000  -2.7500  22.0000 Du        
   3774 ****        -8.5000  -2.7500  22.2500 Du        
   3775 ****        -8.5000  -2.7500  22.5000 Du        
   3776 ****        -8.5000  -2.7500  22.7500 Du        
   3777 ****        -8.5000  -2.7500  23.0000 Du        
   3778 ****        -8.5000  -2.7500  23.2500 Du        
   3779 ****        -8.5000  -2.7500  23.5000 Du        
   3780 ****        -8.5000  -2.7500  23.7500 Du        
   3781 ****        -8.5000  -2.5000  21.7500 Du        
   3782 ****        -8.5000  -2.5000  22.0000 Du        
   3783 ****        -8.5000  -2.5000  22.2500 Du        
   3784 ****        -8.5000  -2.5000  22.5000 Du        
   3785 ****        -8.5000  -2.5000  22.7500 Du        
   3786 ****        -8.5000  -2.5000  23.0000 Du        
   3787 ****        -8.5000  -2.5000  23.2500 Du        
   3788 ****        -8.5000  -2.5000  23.5000 Du        
   3789 ****        -8.5000  -2.5000  23.7500 Du        
   3790 ****        -8.5000  -2.2500  22.0000 Du        
   3791 ****        -8.5000  -2.2500  22.2500 Du        
   3792 ****        -8.5000  -2.2500  22.5000 Du        
   3793 ****        -8.5000  -2.2500  22.7500 Du        
   3794 ****        -8.5000  -2.2500  23.0000 Du        
   3795 ****        -8.5000  -2.2500  23.2500 Du        
   3796 ****        -8.5000  -2.2500  23.5000 Du        
   3797 ****        -8.5000  -2.2500  23.7500 Du        
   3798 ****        -8.5000  -2.0000  22.2500 Du        
   3799 ****        -8.5000  -2.0000  22.5000 Du        
   3800 ****        -8.5000  -2.0000  22.7500 Du        
   3801 ****        -8.5000  -2.0000  23.0000 Du        
   3802 ****        -8.5000  -2.0000  23.2500 Du        
   3803 ****        -8.5000  -2.0000  23.5000 Du        
   3804 ****        -8.5000  -2.0000  23.7500 Du        
   3805 ****        -8.5000  -1.7500  22.5000 Du        
   3806 ****        -8.5000  -1.7500  22.7500 Du        
   3807 ****        -8.5000  -1.7500  23.0000 Du        
   3808 ****        -8.5000  -1.7500  23.2500 Du        
   3809 ****        -8.5000  -1.7500  23.5000 Du        
   3810 ****        -8.5000  -1.7500  23.7500 Du        
   3811 ****        -8.5000  -1.5000  22.7500 Du        
   3812 ****        -8.5000  -1.5000  23.0000 Du        
   3813 ****        -8.5000  -1.5000  23.2500 Du        
   3814 ****        -8.5000  -1.5000  23.5000 Du        
   3815 ****        -8.5000  -1.5000  23.7500 Du        
   3816 ****        -8.5000  -1.2500  23.0000 Du        
   3817 ****        -8.5000  -1.2500  23.2500 Du        
   3818 ****        -8.5000  -1.2500  23.5000 Du        
   3819 ****        -8.5000  -1.2500  23.7500 Du        
   3820 ****        -8.5000  -1.0000  23.2500 Du        
   3821 ****        -8.5000  -1.0000  23.5000 Du        
   3822 ****        -8.5000  -1.0000  23.7500 Du        
   3823 ****        -8.5000  -0.7500  23.2500 Du        
   3824 ****        -8.5000  -0.7500  23.5000 Du        
   3825 ****        -8.5000  -0.7500  23.7500 Du        
   3826 ****        -8.5000  -0.5000  23.5000 Du        
   3827 ****        -8.5000  -0.5000  23.7500 Du        
   3828 ****        -8.5000  -0.2500  23.7500 Du        
   3829 ****        -8.5000   0.0000  23.7500 Du        
   3830 ****        -8.5000   0.2500  23.7500 Du        
   3831 ****        -8.2500 -10.0000  14.2500 Du        
   3832 ****        -8.2500 -10.0000  14.5000 Du        
   3833 ****        -8.2500 -10.0000  14.7500 Du        
   3834 ****        -8.2500 -10.0000  20.0000 Du        
   3835 ****        -8.2500  -9.7500  14.2500 Du        
   3836 ****        -8.2500  -9.7500  14.5000 Du        
   3837 ****        -8.2500  -9.7500  20.0000 Du        
   3838 ****        -8.2500  -9.7500  20.2500 Du        
   3839 ****        -8.2500  -9.5000  20.0000 Du        
   3840 ****        -8.2500  -9.5000  20.2500 Du        
   3841 ****        -8.2500  -9.2500  20.0000 Du        
   3842 ****        -8.2500  -9.2500  20.2500 Du        
   3843 ****        -8.2500  -9.0000  20.0000 Du        
   3844 ****        -8.2500  -8.7500  19.7500 Du        
   3845 ****        -8.2500  -8.7500  20.0000 Du        
   3846 ****        -8.2500  -8.5000  19.7500 Du        
   3847 ****        -8.2500  -8.5000  20.0000 Du        
   3848 ****        -8.2500  -8.2500  19.5000 Du        
   3849 ****        -8.2500  -8.2500  19.7500 Du        
   3850 ****        -8.2500  -8.2500  20.0000 Du        
   3851 ****        -8.2500  -8.0000  19.2500 Du        
   3852 ****        -8.2500  -8.0000  19.5000 Du        
   3853 ****        -8.2500  -8.0000  19.7500 Du        
   3854 ****        -8.2500  -8.0000  20.0000 Du        
   3855 ****        -8.2500  -7.7500  19.0000 Du        
   3856 ****        -8.2500  -7.7500  19.2500 Du        
   3857 ****        -8.2500  -7.7500  19.5000 Du        
   3858 ****        -8.2500  -7.7500  19.7500 Du        
   3859 ****        -8.2500  -7.7500  20.0000 Du        
   3860 ****        -8.2500  -7.5000  18.5000 Du        
   3861 ****        -8.2500  -7.5000  18.7500 Du        
   3862 ****        -8.2500  -7.5000  19.0000 Du        
   3863 ****        -8.2500  -7.5000  19.2500 Du        
   3864 ****        -8.2500  -7.5000  19.5000 Du        
   3865 ****        -8.2500  -7.5000  19.7500 Du        
   3866 ****        -8.2500  -7.5000  20.0000 Du        
   3867 ****        -8.2500  -7.2500  17.2500 Du        
   3868 ****        -8.2500  -7.2500  17.5000 Du        
   3869 ****        -8.2500  -7.2500  17.7500 Du        
   3870 ****        -8.2500  -7.2500  18.0000 Du        
   3871 ****        -8.2500  -7.2500  18.2500 Du        
   3872 ****        -8.2500  -7.2500  18.5000 Du        
   3873 ****        -8.2500  -7.2500  18.7500 Du        
   3874 ****        -8.2500  -7.2500  19.0000 Du        
   3875 ****        -8.2500  -7.2500  19.2500 Du        
   3876 ****        -8.2500  -7.2500  19.5000 Du        
   3877 ****        -8.2500  -7.2500  19.7500 Du        
   3878 ****        -8.2500  -7.2500  20.0000 Du        
   3879 ****        -8.2500  -7.0000  16.7500 Du        
   3880 ****        -8.2500  -7.0000  17.0000 Du        
   3881 ****        -8.2500  -7.0000  17.2500 Du        
   3882 ****        -8.2500  -7.0000  17.5000 Du        
   3883 ****        -8.2500  -7.0000  17.7500 Du        
   3884 ****        -8.2500  -7.0000  18.0000 Du        
   3885 ****        -8.2500  -7.0000  18.2500 Du        
   3886 ****        -8.2500  -7.0000  18.5000 Du        
   3887 ****        -8.2500  -7.0000  18.7500 Du        
   3888 ****        -8.2500  -7.0000  19.0000 Du        
   3889 ****        -8.2500  -7.0000  19.2500 Du        
   3890 ****        -8.2500  -7.0000  19.5000 Du        
   3891 ****        -8.2500  -7.0000  19.7500 Du        
   3892 ****        -8.2500  -7.0000  20.0000 Du        
   3893 ****        -8.2500  -6.7500  16.5000 Du        
   3894 ****        -8.2500  -6.7500  16.7500 Du        
   3895 ****        -8.2500  -6.7500  17.0000 Du        
   3896 ****        -8.2500  -6.7500  17.2500 Du        
   3897 ****        -8.2500  -6.7500  17.5000 Du        
   3898 ****        -8.2500  -6.7500  17.7500 Du        
   3899 ****        -8.2500  -6.7500  18.0000 Du        
   3900 ****        -8.2500  -6.7500  18.2500 Du        
   3901 ****        -8.2500  -6.7500  18.5000 Du        
   3902 ****        -8.2500  -6.7500  18.7500 Du        
   3903 ****        -8.2500  -6.7500  19.0000 Du        
   3904 ****        -8.2500  -6.7500  19.2500 Du        
   3905 ****        -8.2500  -6.7500  19.5000 Du        
   3906 ****        -8.2500  -6.7500  19.7500 Du        
   3907 ****        -8.2500  -6.7500  20.0000 Du        
   3908 ****        -8.2500  -6.5000  16.5000 Du        
   3909 ****        -8.2500  -6.5000  16.7500 Du        
   3910 ****        -8.2500  -6.5000  17.0000 Du        
   3911 ****        -8.2500  -6.5000  17.2500 Du        
   3912 ****        -8.2500  -6.5000  17.5000 Du        
   3913 ****        -8.2500  -6.5000  17.7500 Du        
   3914 ****        -8.2500  -6.5000  18.0000 Du        
   3915 ****        -8.2500  -6.5000  18.2500 Du        
   3916 ****        -8.2500  -6.5000  18.5000 Du        
   3917 ****        -8.2500  -6.5000  18.7500 Du        
   3918 ****        -8.2500  -6.5000  19.0000 Du        
   3919 ****        -8.2500  -6.5000  19.2500 Du        
   3920 ****        -8.2500  -6.5000  19.5000 Du        
   3921 ****        -8.2500  -6.5000  19.7500 Du        
   3922 ****        -8.2500  -6.5000  20.0000 Du        
   3923 ****        -8.2500  -6.2500  16.7500 Du        
   3924 ****        -8.2500  -6.2500  17.0000 Du        
   3925 ****        -8.2500  -6.2500  17.2500 Du        
   3926 ****        -8.2500  -6.2500  17.5000 Du        
   3927 ****        -8.2500  -6.2500  17.7500 Du        
   3928 ****        -8.2500  -6.2500  18.0000 Du        
   3929 ****        -8.2500  -6.2500  18.2500 Du        
   3930 ****        -8.2500  -6.2500  18.5000 Du        
   3931 ****        -8.2500  -6.2500  18.7500 Du        
   3932 ****        -8.2500  -6.2500  19.0000 Du        
   3933 ****        -8.2500  -6.2500  19.2500 Du        
   3934 ****        -8.2500  -6.2500  19.5000 Du        
   3935 ****        -8.2500  -6.2500  19.7500 Du        
   3936 ****        -8.2500  -6.2500  20.0000 Du        
   3937 ****        -8.2500  -6.0000  17.2500 Du        
   3938 ****        -8.2500  -6.0000  17.5000 Du        
   3939 ****        -8.2500  -6.0000  17.7500 Du        
   3940 ****        -8.2500  -6.0000  18.0000 Du        
   3941 ****        -8.2500  -6.0000  18.2500 Du        
   3942 ****        -8.2500  -6.0000  18.5000 Du        
   3943 ****        -8.2500  -6.0000  18.7500 Du        
   3944 ****        -8.2500  -6.0000  19.0000 Du        
   3945 ****        -8.2500  -6.0000  19.2500 Du        
   3946 ****        -8.2500  -6.0000  19.5000 Du        
   3947 ****        -8.2500  -6.0000  19.7500 Du        
   3948 ****        -8.2500  -6.0000  20.0000 Du        
   3949 ****        -8.2500  -5.7500  17.7500 Du        
   3950 ****        -8.2500  -5.7500  18.0000 Du        
   3951 ****        -8.2500  -5.7500  18.2500 Du        
   3952 ****        -8.2500  -5.7500  18.5000 Du        
   3953 ****        -8.2500  -5.7500  18.7500 Du        
   3954 ****        -8.2500  -5.7500  19.0000 Du        
   3955 ****        -8.2500  -5.7500  19.2500 Du        
   3956 ****        -8.2500  -5.7500  19.5000 Du        
   3957 ****        -8.2500  -5.7500  19.7500 Du        
   3958 ****        -8.2500  -5.7500  20.0000 Du        
   3959 ****        -8.2500  -5.5000  18.2500 Du        
   3960 ****        -8.2500  -5.5000  18.5000 Du        
   3961 ****        -8.2500  -5.5000  18.7500 Du        
   3962 ****        -8.2500  -5.5000  19.0000 Du        
   3963 ****        -8.2500  -5.5000  19.2500 Du        
   3964 ****        -8.2500  -5.5000  19.5000 Du        
   3965 ****        -8.2500  -5.5000  19.7500 Du        
   3966 ****        -8.2500  -5.5000  20.0000 Du        
   3967 ****        -8.2500  -5.2500  18.5000 Du        
   3968 ****        -8.2500  -5.2500  18.7500 Du        
   3969 ****        -8.2500  -5.2500  19.0000 Du        
   3970 ****        -8.2500  -5.2500  19.2500 Du        
   3971 ****        -8.2500  -5.2500  19.5000 Du        
   3972 ****        -8.2500  -5.2500  19.7500 Du        
   3973 ****        -8.2500  -5.2500  20.0000 Du        
   3974 ****        -8.2500  -5.0000  19.2500 Du        
   3975 ****        -8.2500  -5.0000  19.5000 Du        
   3976 ****        -8.2500  -5.0000  19.7500 Du        
   3977 ****        -8.2500  -5.0000  20.0000 Du        
   3978 ****        -8.2500  -3.7500  21.2500 Du        
   3979 ****        -8.2500  -3.7500  21.5000 Du        
   3980 ****        -8.2500  -3.7500  21.7500 Du        
   3981 ****        -8.2500  -3.5000  21.2500 Du        
   3982 ****        -8.2500  -3.5000  21.5000 Du        
   3983 ****        -8.2500  -3.5000  21.7500 Du        
   3984 ****        -8.2500  -3.5000  22.0000 Du        
   3985 ****        -8.2500  -3.5000  22.2500 Du        
   3986 ****        -8.2500  -3.5000  22.5000 Du        
   3987 ****        -8.2500  -3.5000  22.7500 Du        
   3988 ****        -8.2500  -3.5000  23.0000 Du        
   3989 ****        -8.2500  -3.5000  23.2500 Du        
   3990 ****        -8.2500  -3.5000  23.5000 Du        
   3991 ****        -8.2500  -3.5000  23.7500 Du        
   3992 ****        -8.2500  -3.2500  21.2500 Du        
   3993 ****        -8.2500  -3.2500  21.5000 Du        
   3994 ****        -8.2500  -3.2500  21.7500 Du        
   3995 ****        -8.2500  -3.2500  22.0000 Du        
   3996 ****        -8.2500  -3.2500  22.2500 Du        
   3997 ****        -8.2500  -3.2500  22.5000 Du        
   3998 ****        -8.2500  -3.2500  22.7500 Du        
   3999 ****        -8.2500  -3.2500  23.0000 Du        
   4000 ****        -8.2500  -3.2500  23.2500 Du        
   4001 ****        -8.2500  -3.2500  23.5000 Du        
   4002 ****        -8.2500  -3.2500  23.7500 Du        
   4003 ****        -8.2500  -3.0000  21.5000 Du        
   4004 ****        -8.2500  -3.0000  21.7500 Du        
   4005 ****        -8.2500  -3.0000  22.0000 Du        
   4006 ****        -8.2500  -3.0000  22.2500 Du        
   4007 ****        -8.2500  -3.0000  22.5000 Du        
   4008 ****        -8.2500  -3.0000  22.7500 Du        
   4009 ****        -8.2500  -3.0000  23.0000 Du        
   4010 ****        -8.2500  -3.0000  23.2500 Du        
   4011 ****        -8.2500  -3.0000  23.5000 Du        
   4012 ****        -8.2500  -3.0000  23.7500 Du        
   4013 ****        -8.2500  -2.7500  21.5000 Du        
   4014 ****        -8.2500  -2.7500  21.7500 Du        
   4015 ****        -8.2500  -2.7500  22.0000 Du        
   4016 ****        -8.2500  -2.7500  22.2500 Du        
   4017 ****        -8.2500  -2.7500  22.5000 Du        
   4018 ****        -8.2500  -2.7500  22.7500 Du        
   4019 ****        -8.2500  -2.7500  23.0000 Du        
   4020 ****        -8.2500  -2.7500  23.2500 Du        
   4021 ****        -8.2500  -2.7500  23.5000 Du        
   4022 ****        -8.2500  -2.7500  23.7500 Du        
   4023 ****        -8.2500  -2.5000  21.7500 Du        
   4024 ****        -8.2500  -2.5000  22.0000 Du        
   4025 ****        -8.2500  -2.5000  22.2500 Du        
   4026 ****        -8.2500  -2.5000  22.5000 Du        
   4027 ****        -8.2500  -2.5000  22.7500 Du        
   4028 ****        -8.2500  -2.5000  23.0000 Du        
   4029 ****        -8.2500  -2.5000  23.2500 Du        
   4030 ****        -8.2500  -2.5000  23.5000 Du        
   4031 ****        -8.2500  -2.5000  23.7500 Du        
   4032 ****        -8.2500  -2.2500  22.0000 Du        
   4033 ****        -8.2500  -2.2500  22.2500 Du        
   4034 ****        -8.2500  -2.2500  22.5000 Du        
   4035 ****        -8.2500  -2.2500  22.7500 Du        
   4036 ****        -8.2500  -2.2500  23.0000 Du        
   4037 ****        -8.2500  -2.2500  23.2500 Du        
   4038 ****        -8.2500  -2.2500  23.5000 Du        
   4039 ****        -8.2500  -2.2500  23.7500 Du        
   4040 ****        -8.2500  -2.0000  22.2500 Du        
   4041 ****        -8.2500  -2.0000  22.5000 Du        
   4042 ****        -8.2500  -2.0000  22.7500 Du        
   4043 ****        -8.2500  -2.0000  23.0000 Du        
   4044 ****        -8.2500  -2.0000  23.2500 Du        
   4045 ****        -8.2500  -2.0000  23.5000 Du        
   4046 ****        -8.2500  -2.0000  23.7500 Du        
   4047 ****        -8.2500  -1.7500  22.5000 Du        
   4048 ****        -8.2500  -1.7500  22.7500 Du        
   4049 ****        -8.2500  -1.7500  23.0000 Du        
   4050 ****        -8.2500  -1.7500  23.2500 Du        
   4051 ****        -8.2500  -1.7500  23.5000 Du        
   4052 ****        -8.2500  -1.7500  23.7500 Du        
   4053 ****        -8.2500  -1.5000  22.7500 Du        
   4054 ****        -8.2500  -1.5000  23.0000 Du        
   4055 ****        -8.2500  -1.5000  23.2500 Du        
   4056 ****        -8.2500  -1.5000  23.5000 Du        
   4057 ****        -8.2500  -1.5000  23.7500 Du        
   4058 ****        -8.2500  -1.2500  23.0000 Du        
   4059 ****        -8.2500  -1.2500  23.2500 Du        
   4060 ****        -8.2500  -1.2500  23.5000 Du        
   4061 ****        -8.2500  -1.2500  23.7500 Du        
   4062 ****        -8.2500  -1.0000  23.2500 Du        
   4063 ****        -8.2500  -1.0000  23.5000 Du        
   4064 ****        -8.2500  -1.0000  23.7500 Du        
   4065 ****        -8.2500  -0.7500  23.5000 Du        
   4066 ****        -8.2500  -0.7500  23.7500 Du        
   4067 ****        -8.2500  -0.5000  23.5000 Du        
   4068 ****        -8.2500  -0.5000  23.7500 Du        
   4069 ****        -8.2500  -0.2500  23.7500 Du        
   4070 ****        -8.2500   0.0000  23.7500 Du        
   4071 ****        -8.0000  -8.0000  19.7500 Du        
   4072 ****        -8.0000  -7.7500  19.5000 Du        
   4073 ****        -8.0000  -7.7500  19.7500 Du        
   4074 ****        -8.0000  -7.7500  20.0000 Du        
   4075 ****        -8.0000  -7.5000  19.0000 Du        
   4076 ****        -8.0000  -7.5000  19.2500 Du        
   4077 ****        -8.0000  -7.5000  19.5000 Du        
   4078 ****        -8.0000  -7.5000  19.7500 Du        
   4079 ****        -8.0000  -7.2500  18.5000 Du        
   4080 ****        -8.0000  -7.2500  18.7500 Du        
   4081 ****        -8.0000  -7.2500  19.0000 Du        
   4082 ****        -8.0000  -7.2500  19.2500 Du        
   4083 ****        -8.0000  -7.2500  19.5000 Du        
   4084 ****        -8.0000  -7.2500  19.7500 Du        
   4085 ****        -8.0000  -7.2500  20.0000 Du        
   4086 ****        -8.0000  -7.0000  17.2500 Du        
   4087 ****        -8.0000  -7.0000  17.5000 Du        
   4088 ****        -8.0000  -7.0000  17.7500 Du        
   4089 ****        -8.0000  -7.0000  18.0000 Du        
   4090 ****        -8.0000  -7.0000  18.2500 Du        
   4091 ****        -8.0000  -7.0000  18.5000 Du        
   4092 ****        -8.0000  -7.0000  18.7500 Du        
   4093 ****        -8.0000  -7.0000  19.0000 Du        
   4094 ****        -8.0000  -7.0000  19.2500 Du        
   4095 ****        -8.0000  -7.0000  19.5000 Du        
   4096 ****        -8.0000  -7.0000  19.7500 Du        
   4097 ****        -8.0000  -7.0000  20.0000 Du        
   4098 ****        -8.0000  -6.7500  16.7500 Du        
   4099 ****        -8.0000  -6.7500  17.0000 Du        
   4100 ****        -8.0000  -6.7500  17.2500 Du        
   4101 ****        -8.0000  -6.7500  17.5000 Du        
   4102 ****        -8.0000  -6.7500  17.7500 Du        
   4103 ****        -8.0000  -6.7500  18.0000 Du        
   4104 ****        -8.0000  -6.7500  18.2500 Du        
   4105 ****        -8.0000  -6.7500  18.5000 Du        
   4106 ****        -8.0000  -6.7500  18.7500 Du        
   4107 ****        -8.0000  -6.7500  19.0000 Du        
   4108 ****        -8.0000  -6.7500  19.2500 Du        
   4109 ****        -8.0000  -6.7500  19.5000 Du        
   4110 ****        -8.0000  -6.7500  19.7500 Du        
   4111 ****        -8.0000  -6.7500  20.0000 Du        
   4112 ****        -8.0000  -6.5000  16.7500 Du        
   4113 ****        -8.0000  -6.5000  17.0000 Du        
   4114 ****        -8.0000  -6.5000  17.2500 Du        
   4115 ****        -8.0000  -6.5000  17.5000 Du        
   4116 ****        -8.0000  -6.5000  17.7500 Du        
   4117 ****        -8.0000  -6.5000  18.0000 Du        
   4118 ****        -8.0000  -6.5000  18.2500 Du        
   4119 ****        -8.0000  -6.5000  18.5000 Du        
   4120 ****        -8.0000  -6.5000  18.7500 Du        
   4121 ****        -8.0000  -6.5000  19.0000 Du        
   4122 ****        -8.0000  -6.5000  19.2500 Du        
   4123 ****        -8.0000  -6.5000  19.5000 Du        
   4124 ****        -8.0000  -6.5000  19.7500 Du        
   4125 ****        -8.0000  -6.5000  20.0000 Du        
   4126 ****        -8.0000  -6.2500  17.0000 Du        
   4127 ****        -8.0000  -6.2500  17.2500 Du        
   4128 ****        -8.0000  -6.2500  17.5000 Du        
   4129 ****        -8.0000  -6.2500  17.7500 Du        
   4130 ****        -8.0000  -6.2500  18.0000 Du        
   4131 ****        -8.0000  -6.2500  18.2500 Du        
   4132 ****        -8.0000  -6.2500  18.5000 Du        
   4133 ****        -8.0000  -6.2500  18.7500 Du        
   4134 ****        -8.0000  -6.2500  19.0000 Du        
   4135 ****        -8.0000  -6.2500  19.2500 Du        
   4136 ****        -8.0000  -6.2500  19.5000 Du        
   4137 ****        -8.0000  -6.2500  19.7500 Du        
   4138 ****        -8.0000  -6.2500  20.0000 Du        
   4139 ****        -8.0000  -6.0000  17.5000 Du        
   4140 ****        -8.0000  -6.0000  17.7500 Du        
   4141 ****        -8.0000  -6.0000  18.0000 Du        
   4142 ****        -8.0000  -6.0000  18.2500 Du        
   4143 ****        -8.0000  -6.0000  18.5000 Du        
   4144 ****        -8.0000  -6.0000  18.7500 Du        
   4145 ****        -8.0000  -6.0000  19.0000 Du        
   4146 ****        -8.0000  -6.0000  19.2500 Du        
   4147 ****        -8.0000  -6.0000  19.5000 Du        
   4148 ****        -8.0000  -6.0000  19.7500 Du        
   4149 ****        -8.0000  -6.0000  20.0000 Du        
   4150 ****        -8.0000  -5.7500  17.7500 Du        
   4151 ****        -8.0000  -5.7500  18.0000 Du        
   4152 ****        -8.0000  -5.7500  18.2500 Du        
   4153 ****        -8.0000  -5.7500  18.5000 Du        
   4154 ****        -8.0000  -5.7500  18.7500 Du        
   4155 ****        -8.0000  -5.7500  19.0000 Du        
   4156 ****        -8.0000  -5.7500  19.2500 Du        
   4157 ****        -8.0000  -5.7500  19.5000 Du        
   4158 ****        -8.0000  -5.7500  19.7500 Du        
   4159 ****        -8.0000  -5.7500  20.0000 Du        
   4160 ****        -8.0000  -5.5000  18.2500 Du        
   4161 ****        -8.0000  -5.5000  18.5000 Du        
   4162 ****        -8.0000  -5.5000  18.7500 Du        
   4163 ****        -8.0000  -5.5000  19.0000 Du        
   4164 ****        -8.0000  -5.5000  19.2500 Du        
   4165 ****        -8.0000  -5.5000  19.5000 Du        
   4166 ****        -8.0000  -5.5000  19.7500 Du        
   4167 ****        -8.0000  -5.5000  20.0000 Du        
   4168 ****        -8.0000  -5.5000  20.2500 Du        
   4169 ****        -8.0000  -5.2500  18.5000 Du        
   4170 ****        -8.0000  -5.2500  18.7500 Du        
   4171 ****        -8.0000  -5.2500  19.0000 Du        
   4172 ****        -8.0000  -5.2500  19.2500 Du        
   4173 ****        -8.0000  -5.2500  19.5000 Du        
   4174 ****        -8.0000  -5.2500  19.7500 Du        
   4175 ****        -8.0000  -5.2500  20.0000 Du        
   4176 ****        -8.0000  -5.2500  20.2500 Du        
   4177 ****        -8.0000  -5.0000  19.0000 Du        
   4178 ****        -8.0000  -5.0000  19.2500 Du        
   4179 ****        -8.0000  -5.0000  19.5000 Du        
   4180 ****        -8.0000  -5.0000  19.7500 Du        
   4181 ****        -8.0000  -5.0000  20.0000 Du        
   4182 ****        -8.0000  -5.0000  20.2500 Du        
   4183 ****        -8.0000  -4.0000  21.0000 Du        
   4184 ****        -8.0000  -4.0000  21.2500 Du        
   4185 ****        -8.0000  -4.0000  21.5000 Du        
   4186 ****        -8.0000  -4.0000  21.7500 Du        
   4187 ****        -8.0000  -3.7500  21.2500 Du        
   4188 ****        -8.0000  -3.7500  21.5000 Du        
   4189 ****        -8.0000  -3.7500  21.7500 Du        
   4190 ****        -8.0000  -3.7500  22.0000 Du        
   4191 ****        -8.0000  -3.7500  22.2500 Du        
   4192 ****        -8.0000  -3.5000  21.2500 Du        
   4193 ****        -8.0000  -3.5000  21.5000 Du        
   4194 ****        -8.0000  -3.5000  21.7500 Du        
   4195 ****        -8.0000  -3.5000  22.0000 Du        
   4196 ****        -8.0000  -3.5000  22.2500 Du        
   4197 ****        -8.0000  -3.5000  22.5000 Du        
   4198 ****        -8.0000  -3.5000  22.7500 Du        
   4199 ****        -8.0000  -3.5000  23.0000 Du        
   4200 ****        -8.0000  -3.5000  23.2500 Du        
   4201 ****        -8.0000  -3.5000  23.5000 Du        
   4202 ****        -8.0000  -3.5000  23.7500 Du        
   4203 ****        -8.0000  -3.2500  21.2500 Du        
   4204 ****        -8.0000  -3.2500  21.5000 Du        
   4205 ****        -8.0000  -3.2500  21.7500 Du        
   4206 ****        -8.0000  -3.2500  22.0000 Du        
   4207 ****        -8.0000  -3.2500  22.2500 Du        
   4208 ****        -8.0000  -3.2500  22.5000 Du        
   4209 ****        -8.0000  -3.2500  22.7500 Du        
   4210 ****        -8.0000  -3.2500  23.0000 Du        
   4211 ****        -8.0000  -3.2500  23.2500 Du        
   4212 ****        -8.0000  -3.2500  23.5000 Du        
   4213 ****        -8.0000  -3.2500  23.7500 Du        
   4214 ****        -8.0000  -3.0000  21.5000 Du        
   4215 ****        -8.0000  -3.0000  21.7500 Du        
   4216 ****        -8.0000  -3.0000  22.0000 Du        
   4217 ****        -8.0000  -3.0000  22.2500 Du        
   4218 ****        -8.0000  -3.0000  22.5000 Du        
   4219 ****        -8.0000  -3.0000  22.7500 Du        
   4220 ****        -8.0000  -3.0000  23.0000 Du        
   4221 ****        -8.0000  -3.0000  23.2500 Du        
   4222 ****        -8.0000  -3.0000  23.5000 Du        
   4223 ****        -8.0000  -3.0000  23.7500 Du        
   4224 ****        -8.0000  -2.7500  21.5000 Du        
   4225 ****        -8.0000  -2.7500  21.7500 Du        
   4226 ****        -8.0000  -2.7500  22.0000 Du        
   4227 ****        -8.0000  -2.7500  22.2500 Du        
   4228 ****        -8.0000  -2.7500  22.5000 Du        
   4229 ****        -8.0000  -2.7500  22.7500 Du        
   4230 ****        -8.0000  -2.7500  23.0000 Du        
   4231 ****        -8.0000  -2.7500  23.2500 Du        
   4232 ****        -8.0000  -2.7500  23.5000 Du        
   4233 ****        -8.0000  -2.7500  23.7500 Du        
   4234 ****        -8.0000  -2.5000  21.7500 Du        
   4235 ****        -8.0000  -2.5000  22.0000 Du        
   4236 ****        -8.0000  -2.5000  22.2500 Du        
   4237 ****        -8.0000  -2.5000  22.5000 Du        
   4238 ****        -8.0000  -2.5000  22.7500 Du        
   4239 ****        -8.0000  -2.5000  23.0000 Du        
   4240 ****        -8.0000  -2.5000  23.2500 Du        
   4241 ****        -8.0000  -2.5000  23.5000 Du        
   4242 ****        -8.0000  -2.5000  23.7500 Du        
   4243 ****        -8.0000  -2.2500  22.0000 Du        
   4244 ****        -8.0000  -2.2500  22.2500 Du        
   4245 ****        -8.0000  -2.2500  22.5000 Du        
   4246 ****        -8.0000  -2.2500  22.7500 Du        
   4247 ****        -8.0000  -2.2500  23.0000 Du        
   4248 ****        -8.0000  -2.2500  23.2500 Du        
   4249 ****        -8.0000  -2.2500  23.5000 Du        
   4250 ****        -8.0000  -2.2500  23.7500 Du        
   4251 ****        -8.0000  -2.0000  22.2500 Du        
   4252 ****        -8.0000  -2.0000  22.5000 Du        
   4253 ****        -8.0000  -2.0000  22.7500 Du        
   4254 ****        -8.0000  -2.0000  23.0000 Du        
   4255 ****        -8.0000  -2.0000  23.2500 Du        
   4256 ****        -8.0000  -2.0000  23.5000 Du        
   4257 ****        -8.0000  -2.0000  23.7500 Du        
   4258 ****        -8.0000  -1.7500  22.5000 Du        
   4259 ****        -8.0000  -1.7500  22.7500 Du        
   4260 ****        -8.0000  -1.7500  23.0000 Du        
   4261 ****        -8.0000  -1.7500  23.2500 Du        
   4262 ****        -8.0000  -1.7500  23.5000 Du        
   4263 ****        -8.0000  -1.7500  23.7500 Du        
   4264 ****        -8.0000  -1.5000  22.7500 Du        
   4265 ****        -8.0000  -1.5000  23.0000 Du        
   4266 ****        -8.0000  -1.5000  23.2500 Du        
   4267 ****        -8.0000  -1.5000  23.5000 Du        
   4268 ****        -8.0000  -1.5000  23.7500 Du        
   4269 ****        -8.0000  -1.2500  23.0000 Du        
   4270 ****        -8.0000  -1.2500  23.2500 Du        
   4271 ****        -8.0000  -1.2500  23.5000 Du        
   4272 ****        -8.0000  -1.2500  23.7500 Du        
   4273 ****        -8.0000  -1.0000  23.2500 Du        
   4274 ****        -8.0000  -1.0000  23.5000 Du        
   4275 ****        -8.0000  -1.0000  23.7500 Du        
   4276 ****        -8.0000  -0.7500  23.5000 Du        
   4277 ****        -8.0000  -0.7500  23.7500 Du        
   4278 ****        -8.0000  -0.5000  23.7500 Du        
   4279 ****        -7.7500  -7.2500  19.2500 Du        
   4280 ****        -7.7500  -7.2500  19.5000 Du        
   4281 ****        -7.7500  -7.2500  19.7500 Du        
   4282 ****        -7.7500  -7.0000  18.5000 Du        
   4283 ****        -7.7500  -7.0000  18.7500 Du        
   4284 ****        -7.7500  -7.0000  19.0000 Du        
   4285 ****        -7.7500  -7.0000  19.2500 Du        
   4286 ****        -7.7500  -7.0000  19.5000 Du        
   4287 ****        -7.7500  -7.0000  19.7500 Du        
   4288 ****        -7.7500  -7.0000  20.0000 Du        
   4289 ****        -7.7500  -6.7500  17.2500 Du        
   4290 ****        -7.7500  -6.7500  17.5000 Du        
   4291 ****        -7.7500  -6.7500  17.7500 Du        
   4292 ****        -7.7500  -6.7500  18.0000 Du        
   4293 ****        -7.7500  -6.7500  18.2500 Du        
   4294 ****        -7.7500  -6.7500  18.5000 Du        
   4295 ****        -7.7500  -6.7500  18.7500 Du        
   4296 ****        -7.7500  -6.7500  19.0000 Du        
   4297 ****        -7.7500  -6.7500  19.2500 Du        
   4298 ****        -7.7500  -6.7500  19.5000 Du        
   4299 ****        -7.7500  -6.7500  19.7500 Du        
   4300 ****        -7.7500  -6.7500  20.0000 Du        
   4301 ****        -7.7500  -6.5000  17.0000 Du        
   4302 ****        -7.7500  -6.5000  17.2500 Du        
   4303 ****        -7.7500  -6.5000  17.5000 Du        
   4304 ****        -7.7500  -6.5000  17.7500 Du        
   4305 ****        -7.7500  -6.5000  18.0000 Du        
   4306 ****        -7.7500  -6.5000  18.2500 Du        
   4307 ****        -7.7500  -6.5000  18.5000 Du        
   4308 ****        -7.7500  -6.5000  18.7500 Du        
   4309 ****        -7.7500  -6.5000  19.0000 Du        
   4310 ****        -7.7500  -6.5000  19.2500 Du        
   4311 ****        -7.7500  -6.5000  19.5000 Du        
   4312 ****        -7.7500  -6.5000  19.7500 Du        
   4313 ****        -7.7500  -6.5000  20.0000 Du        
   4314 ****        -7.7500  -6.2500  17.2500 Du        
   4315 ****        -7.7500  -6.2500  17.5000 Du        
   4316 ****        -7.7500  -6.2500  17.7500 Du        
   4317 ****        -7.7500  -6.2500  18.0000 Du        
   4318 ****        -7.7500  -6.2500  18.2500 Du        
   4319 ****        -7.7500  -6.2500  18.5000 Du        
   4320 ****        -7.7500  -6.2500  18.7500 Du        
   4321 ****        -7.7500  -6.2500  19.0000 Du        
   4322 ****        -7.7500  -6.2500  19.2500 Du        
   4323 ****        -7.7500  -6.2500  19.5000 Du        
   4324 ****        -7.7500  -6.2500  19.7500 Du        
   4325 ****        -7.7500  -6.2500  20.0000 Du        
   4326 ****        -7.7500  -6.0000  17.5000 Du        
   4327 ****        -7.7500  -6.0000  17.7500 Du        
   4328 ****        -7.7500  -6.0000  18.0000 Du        
   4329 ****        -7.7500  -6.0000  18.2500 Du        
   4330 ****        -7.7500  -6.0000  18.5000 Du        
   4331 ****        -7.7500  -6.0000  18.7500 Du        
   4332 ****        -7.7500  -6.0000  19.0000 Du        
   4333 ****        -7.7500  -6.0000  19.2500 Du        
   4334 ****        -7.7500  -6.0000  19.5000 Du        
   4335 ****        -7.7500  -6.0000  19.7500 Du        
   4336 ****        -7.7500  -6.0000  20.0000 Du        
   4337 ****        -7.7500  -5.7500  18.0000 Du        
   4338 ****        -7.7500  -5.7500  18.2500 Du        
   4339 ****        -7.7500  -5.7500  18.5000 Du        
   4340 ****        -7.7500  -5.7500  18.7500 Du        
   4341 ****        -7.7500  -5.7500  19.0000 Du        
   4342 ****        -7.7500  -5.7500  19.2500 Du        
   4343 ****        -7.7500  -5.7500  19.5000 Du        
   4344 ****        -7.7500  -5.7500  19.7500 Du        
   4345 ****        -7.7500  -5.7500  20.0000 Du        
   4346 ****        -7.7500  -5.5000  18.2500 Du        
   4347 ****        -7.7500  -5.5000  18.5000 Du        
   4348 ****        -7.7500  -5.5000  18.7500 Du        
   4349 ****        -7.7500  -5.5000  19.0000 Du        
   4350 ****        -7.7500  -5.5000  19.2500 Du        
   4351 ****        -7.7500  -5.5000  19.5000 Du        
   4352 ****        -7.7500  -5.5000  19.7500 Du        
   4353 ****        -7.7500  -5.5000  20.0000 Du        
   4354 ****        -7.7500  -5.5000  20.2500 Du        
   4355 ****        -7.7500  -5.2500  18.7500 Du        
   4356 ****        -7.7500  -5.2500  19.0000 Du        
   4357 ****        -7.7500  -5.2500  19.2500 Du        
   4358 ****        -7.7500  -5.2500  19.5000 Du        
   4359 ****        -7.7500  -5.2500  19.7500 Du        
   4360 ****        -7.7500  -5.2500  20.0000 Du        
   4361 ****        -7.7500  -5.2500  20.2500 Du        
   4362 ****        -7.7500  -5.0000  19.2500 Du        
   4363 ****        -7.7500  -5.0000  19.7500 Du        
   4364 ****        -7.7500  -5.0000  20.0000 Du        
   4365 ****        -7.7500  -5.0000  20.2500 Du        
   4366 ****        -7.7500  -4.0000  21.0000 Du        
   4367 ****        -7.7500  -4.0000  21.2500 Du        
   4368 ****        -7.7500  -4.0000  21.5000 Du        
   4369 ****        -7.7500  -4.0000  21.7500 Du        
   4370 ****        -7.7500  -3.7500  21.2500 Du        
   4371 ****        -7.7500  -3.7500  21.5000 Du        
   4372 ****        -7.7500  -3.7500  21.7500 Du        
   4373 ****        -7.7500  -3.7500  22.0000 Du        
   4374 ****        -7.7500  -3.7500  22.2500 Du        
   4375 ****        -7.7500  -3.7500  22.5000 Du        
   4376 ****        -7.7500  -3.5000  21.2500 Du        
   4377 ****        -7.7500  -3.5000  21.5000 Du        
   4378 ****        -7.7500  -3.5000  21.7500 Du        
   4379 ****        -7.7500  -3.5000  22.0000 Du        
   4380 ****        -7.7500  -3.5000  22.2500 Du        
   4381 ****        -7.7500  -3.5000  22.5000 Du        
   4382 ****        -7.7500  -3.5000  22.7500 Du        
   4383 ****        -7.7500  -3.5000  23.0000 Du        
   4384 ****        -7.7500  -3.5000  23.2500 Du        
   4385 ****        -7.7500  -3.5000  23.5000 Du        
   4386 ****        -7.7500  -3.5000  23.7500 Du        
   4387 ****        -7.7500  -3.2500  21.5000 Du        
   4388 ****        -7.7500  -3.2500  21.7500 Du        
   4389 ****        -7.7500  -3.2500  22.0000 Du        
   4390 ****        -7.7500  -3.2500  22.2500 Du        
   4391 ****        -7.7500  -3.2500  22.5000 Du        
   4392 ****        -7.7500  -3.2500  22.7500 Du        
   4393 ****        -7.7500  -3.2500  23.0000 Du        
   4394 ****        -7.7500  -3.2500  23.2500 Du        
   4395 ****        -7.7500  -3.2500  23.5000 Du        
   4396 ****        -7.7500  -3.2500  23.7500 Du        
   4397 ****        -7.7500  -3.0000  21.5000 Du        
   4398 ****        -7.7500  -3.0000  21.7500 Du        
   4399 ****        -7.7500  -3.0000  22.0000 Du        
   4400 ****        -7.7500  -3.0000  22.2500 Du        
   4401 ****        -7.7500  -3.0000  22.5000 Du        
   4402 ****        -7.7500  -3.0000  22.7500 Du        
   4403 ****        -7.7500  -3.0000  23.0000 Du        
   4404 ****        -7.7500  -3.0000  23.2500 Du        
   4405 ****        -7.7500  -3.0000  23.5000 Du        
   4406 ****        -7.7500  -3.0000  23.7500 Du        
   4407 ****        -7.7500  -2.7500  21.7500 Du        
   4408 ****        -7.7500  -2.7500  22.0000 Du        
   4409 ****        -7.7500  -2.7500  22.2500 Du        
   4410 ****        -7.7500  -2.7500  22.5000 Du        
   4411 ****        -7.7500  -2.7500  22.7500 Du        
   4412 ****        -7.7500  -2.7500  23.0000 Du        
   4413 ****        -7.7500  -2.7500  23.2500 Du        
   4414 ****        -7.7500  -2.7500  23.5000 Du        
   4415 ****        -7.7500  -2.7500  23.7500 Du        
   4416 ****        -7.7500  -2.5000  22.0000 Du        
   4417 ****        -7.7500  -2.5000  22.2500 Du        
   4418 ****        -7.7500  -2.5000  22.5000 Du        
   4419 ****        -7.7500  -2.5000  22.7500 Du        
   4420 ****        -7.7500  -2.5000  23.0000 Du        
   4421 ****        -7.7500  -2.5000  23.2500 Du        
   4422 ****        -7.7500  -2.5000  23.5000 Du        
   4423 ****        -7.7500  -2.5000  23.7500 Du        
   4424 ****        -7.7500  -2.2500  22.2500 Du        
   4425 ****        -7.7500  -2.2500  22.5000 Du        
   4426 ****        -7.7500  -2.2500  22.7500 Du        
   4427 ****        -7.7500  -2.2500  23.0000 Du        
   4428 ****        -7.7500  -2.2500  23.2500 Du        
   4429 ****        -7.7500  -2.2500  23.5000 Du        
   4430 ****        -7.7500  -2.2500  23.7500 Du        
   4431 ****        -7.7500  -2.0000  22.5000 Du        
   4432 ****        -7.7500  -2.0000  22.7500 Du        
   4433 ****        -7.7500  -2.0000  23.0000 Du        
   4434 ****        -7.7500  -2.0000  23.2500 Du        
   4435 ****        -7.7500  -2.0000  23.5000 Du        
   4436 ****        -7.7500  -2.0000  23.7500 Du        
   4437 ****        -7.7500  -1.7500  22.7500 Du        
   4438 ****        -7.7500  -1.7500  23.0000 Du        
   4439 ****        -7.7500  -1.7500  23.2500 Du        
   4440 ****        -7.7500  -1.7500  23.5000 Du        
   4441 ****        -7.7500  -1.7500  23.7500 Du        
   4442 ****        -7.7500  -1.5000  23.0000 Du        
   4443 ****        -7.7500  -1.5000  23.2500 Du        
   4444 ****        -7.7500  -1.5000  23.5000 Du        
   4445 ****        -7.7500  -1.5000  23.7500 Du        
   4446 ****        -7.7500  -1.2500  23.0000 Du        
   4447 ****        -7.7500  -1.2500  23.2500 Du        
   4448 ****        -7.7500  -1.2500  23.5000 Du        
   4449 ****        -7.7500  -1.2500  23.7500 Du        
   4450 ****        -7.7500  -1.0000  23.5000 Du        
   4451 ****        -7.7500  -1.0000  23.7500 Du        
   4452 ****        -7.5000  -7.0000  19.2500 Du        
   4453 ****        -7.5000  -7.0000  19.5000 Du        
   4454 ****        -7.5000  -7.0000  19.7500 Du        
   4455 ****        -7.5000  -6.7500  18.5000 Du        
   4456 ****        -7.5000  -6.7500  18.7500 Du        
   4457 ****        -7.5000  -6.7500  19.0000 Du        
   4458 ****        -7.5000  -6.7500  19.2500 Du        
   4459 ****        -7.5000  -6.7500  19.5000 Du        
   4460 ****        -7.5000  -6.7500  19.7500 Du        
   4461 ****        -7.5000  -6.5000  17.5000 Du        
   4462 ****        -7.5000  -6.5000  17.7500 Du        
   4463 ****        -7.5000  -6.5000  18.0000 Du        
   4464 ****        -7.5000  -6.5000  18.2500 Du        
   4465 ****        -7.5000  -6.5000  18.5000 Du        
   4466 ****        -7.5000  -6.5000  18.7500 Du        
   4467 ****        -7.5000  -6.5000  19.0000 Du        
   4468 ****        -7.5000  -6.5000  19.2500 Du        
   4469 ****        -7.5000  -6.5000  19.5000 Du        
   4470 ****        -7.5000  -6.5000  19.7500 Du        
   4471 ****        -7.5000  -6.5000  20.0000 Du        
   4472 ****        -7.5000  -6.2500  17.5000 Du        
   4473 ****        -7.5000  -6.2500  17.7500 Du        
   4474 ****        -7.5000  -6.2500  18.0000 Du        
   4475 ****        -7.5000  -6.2500  18.2500 Du        
   4476 ****        -7.5000  -6.2500  18.5000 Du        
   4477 ****        -7.5000  -6.2500  18.7500 Du        
   4478 ****        -7.5000  -6.2500  19.0000 Du        
   4479 ****        -7.5000  -6.2500  19.2500 Du        
   4480 ****        -7.5000  -6.2500  19.5000 Du        
   4481 ****        -7.5000  -6.2500  19.7500 Du        
   4482 ****        -7.5000  -6.2500  20.0000 Du        
   4483 ****        -7.5000  -6.0000  17.5000 Du        
   4484 ****        -7.5000  -6.0000  17.7500 Du        
   4485 ****        -7.5000  -6.0000  18.0000 Du        
   4486 ****        -7.5000  -6.0000  18.2500 Du        
   4487 ****        -7.5000  -6.0000  18.5000 Du        
   4488 ****        -7.5000  -6.0000  18.7500 Du        
   4489 ****        -7.5000  -6.0000  19.0000 Du        
   4490 ****        -7.5000  -6.0000  19.2500 Du        
   4491 ****        -7.5000  -6.0000  19.5000 Du        
   4492 ****        -7.5000  -6.0000  19.7500 Du        
   4493 ****        -7.5000  -6.0000  20.0000 Du        
   4494 ****        -7.5000  -5.7500  18.0000 Du        
   4495 ****        -7.5000  -5.7500  18.2500 Du        
   4496 ****        -7.5000  -5.7500  18.5000 Du        
   4497 ****        -7.5000  -5.7500  18.7500 Du        
   4498 ****        -7.5000  -5.7500  19.0000 Du        
   4499 ****        -7.5000  -5.7500  19.2500 Du        
   4500 ****        -7.5000  -5.7500  19.5000 Du        
   4501 ****        -7.5000  -5.7500  19.7500 Du        
   4502 ****        -7.5000  -5.7500  20.0000 Du        
   4503 ****        -7.5000  -5.5000  18.2500 Du        
   4504 ****        -7.5000  -5.5000  18.5000 Du        
   4505 ****        -7.5000  -5.5000  18.7500 Du        
   4506 ****        -7.5000  -5.5000  19.0000 Du        
   4507 ****        -7.5000  -5.5000  19.2500 Du        
   4508 ****        -7.5000  -5.5000  19.5000 Du        
   4509 ****        -7.5000  -5.5000  19.7500 Du        
   4510 ****        -7.5000  -5.5000  20.0000 Du        
   4511 ****        -7.5000  -5.5000  20.2500 Du        
   4512 ****        -7.5000  -5.2500  18.7500 Du        
   4513 ****        -7.5000  -5.2500  19.0000 Du        
   4514 ****        -7.5000  -5.2500  19.2500 Du        
   4515 ****        -7.5000  -5.2500  19.5000 Du        
   4516 ****        -7.5000  -5.2500  19.7500 Du        
   4517 ****        -7.5000  -5.2500  20.0000 Du        
   4518 ****        -7.5000  -5.2500  20.2500 Du        
   4519 ****        -7.5000  -5.0000  19.7500 Du        
   4520 ****        -7.5000  -5.0000  20.0000 Du        
   4521 ****        -7.5000  -5.0000  20.2500 Du        
   4522 ****        -7.5000  -4.7500  20.5000 Du        
   4523 ****        -7.5000  -4.2500  21.0000 Du        
   4524 ****        -7.5000  -4.2500  21.2500 Du        
   4525 ****        -7.5000  -4.0000  21.2500 Du        
   4526 ****        -7.5000  -4.0000  21.5000 Du        
   4527 ****        -7.5000  -4.0000  21.7500 Du        
   4528 ****        -7.5000  -4.0000  22.0000 Du        
   4529 ****        -7.5000  -3.7500  21.2500 Du        
   4530 ****        -7.5000  -3.7500  21.5000 Du        
   4531 ****        -7.5000  -3.7500  21.7500 Du        
   4532 ****        -7.5000  -3.7500  22.0000 Du        
   4533 ****        -7.5000  -3.7500  22.2500 Du        
   4534 ****        -7.5000  -3.7500  22.5000 Du        
   4535 ****        -7.5000  -3.5000  21.5000 Du        
   4536 ****        -7.5000  -3.5000  21.7500 Du        
   4537 ****        -7.5000  -3.5000  22.0000 Du        
   4538 ****        -7.5000  -3.5000  22.2500 Du        
   4539 ****        -7.5000  -3.5000  22.5000 Du        
   4540 ****        -7.5000  -3.5000  22.7500 Du        
   4541 ****        -7.5000  -3.5000  23.0000 Du        
   4542 ****        -7.5000  -3.5000  23.2500 Du        
   4543 ****        -7.5000  -3.5000  23.5000 Du        
   4544 ****        -7.5000  -3.5000  23.7500 Du        
   4545 ****        -7.5000  -3.2500  21.5000 Du        
   4546 ****        -7.5000  -3.2500  21.7500 Du        
   4547 ****        -7.5000  -3.2500  22.0000 Du        
   4548 ****        -7.5000  -3.2500  22.2500 Du        
   4549 ****        -7.5000  -3.2500  22.5000 Du        
   4550 ****        -7.5000  -3.2500  22.7500 Du        
   4551 ****        -7.5000  -3.2500  23.0000 Du        
   4552 ****        -7.5000  -3.2500  23.2500 Du        
   4553 ****        -7.5000  -3.2500  23.5000 Du        
   4554 ****        -7.5000  -3.2500  23.7500 Du        
   4555 ****        -7.5000  -3.0000  21.5000 Du        
   4556 ****        -7.5000  -3.0000  21.7500 Du        
   4557 ****        -7.5000  -3.0000  22.0000 Du        
   4558 ****        -7.5000  -3.0000  22.2500 Du        
   4559 ****        -7.5000  -3.0000  22.5000 Du        
   4560 ****        -7.5000  -3.0000  22.7500 Du        
   4561 ****        -7.5000  -3.0000  23.0000 Du        
   4562 ****        -7.5000  -3.0000  23.2500 Du        
   4563 ****        -7.5000  -3.0000  23.5000 Du        
   4564 ****        -7.5000  -3.0000  23.7500 Du        
   4565 ****        -7.5000  -2.7500  21.7500 Du        
   4566 ****        -7.5000  -2.7500  22.0000 Du        
   4567 ****        -7.5000  -2.7500  22.2500 Du        
   4568 ****        -7.5000  -2.7500  22.5000 Du        
   4569 ****        -7.5000  -2.7500  22.7500 Du        
   4570 ****        -7.5000  -2.7500  23.0000 Du        
   4571 ****        -7.5000  -2.7500  23.2500 Du        
   4572 ****        -7.5000  -2.7500  23.5000 Du        
   4573 ****        -7.5000  -2.7500  23.7500 Du        
   4574 ****        -7.5000  -2.5000  22.0000 Du        
   4575 ****        -7.5000  -2.5000  22.2500 Du        
   4576 ****        -7.5000  -2.5000  22.5000 Du        
   4577 ****        -7.5000  -2.5000  22.7500 Du        
   4578 ****        -7.5000  -2.5000  23.0000 Du        
   4579 ****        -7.5000  -2.5000  23.2500 Du        
   4580 ****        -7.5000  -2.5000  23.5000 Du        
   4581 ****        -7.5000  -2.5000  23.7500 Du        
   4582 ****        -7.5000  -2.2500  22.2500 Du        
   4583 ****        -7.5000  -2.2500  22.5000 Du        
   4584 ****        -7.5000  -2.2500  22.7500 Du        
   4585 ****        -7.5000  -2.2500  23.0000 Du        
   4586 ****        -7.5000  -2.2500  23.2500 Du        
   4587 ****        -7.5000  -2.2500  23.5000 Du        
   4588 ****        -7.5000  -2.0000  22.5000 Du        
   4589 ****        -7.5000  -2.0000  22.7500 Du        
   4590 ****        -7.5000  -2.0000  23.0000 Du        
   4591 ****        -7.5000  -2.0000  23.2500 Du        
   4592 ****        -7.5000  -2.0000  23.5000 Du        
   4593 ****        -7.5000  -1.7500  22.7500 Du        
   4594 ****        -7.5000  -1.7500  23.0000 Du        
   4595 ****        -7.5000  -1.7500  23.2500 Du        
   4596 ****        -7.5000  -1.7500  23.5000 Du        
   4597 ****        -7.5000  -1.5000  23.0000 Du        
   4598 ****        -7.5000  -1.5000  23.2500 Du        
   4599 ****        -7.2500  -6.7500  19.0000 Du        
   4600 ****        -7.2500  -6.7500  19.2500 Du        
   4601 ****        -7.2500  -6.7500  19.5000 Du        
   4602 ****        -7.2500  -6.7500  19.7500 Du        
   4603 ****        -7.2500  -6.5000  18.5000 Du        
   4604 ****        -7.2500  -6.5000  18.7500 Du        
   4605 ****        -7.2500  -6.5000  19.0000 Du        
   4606 ****        -7.2500  -6.5000  19.2500 Du        
   4607 ****        -7.2500  -6.5000  19.5000 Du        
   4608 ****        -7.2500  -6.5000  19.7500 Du        
   4609 ****        -7.2500  -6.2500  17.5000 Du        
   4610 ****        -7.2500  -6.2500  17.7500 Du        
   4611 ****        -7.2500  -6.2500  18.0000 Du        
   4612 ****        -7.2500  -6.2500  18.2500 Du        
   4613 ****        -7.2500  -6.2500  18.5000 Du        
   4614 ****        -7.2500  -6.2500  18.7500 Du        
   4615 ****        -7.2500  -6.2500  19.0000 Du        
   4616 ****        -7.2500  -6.2500  19.2500 Du        
   4617 ****        -7.2500  -6.2500  19.5000 Du        
   4618 ****        -7.2500  -6.2500  19.7500 Du        
   4619 ****        -7.2500  -6.2500  20.0000 Du        
   4620 ****        -7.2500  -6.0000  17.7500 Du        
   4621 ****        -7.2500  -6.0000  18.0000 Du        
   4622 ****        -7.2500  -6.0000  18.2500 Du        
   4623 ****        -7.2500  -6.0000  18.5000 Du        
   4624 ****        -7.2500  -6.0000  18.7500 Du        
   4625 ****        -7.2500  -6.0000  19.0000 Du        
   4626 ****        -7.2500  -6.0000  19.2500 Du        
   4627 ****        -7.2500  -6.0000  19.5000 Du        
   4628 ****        -7.2500  -6.0000  19.7500 Du        
   4629 ****        -7.2500  -6.0000  20.0000 Du        
   4630 ****        -7.2500  -5.7500  18.0000 Du        
   4631 ****        -7.2500  -5.7500  18.2500 Du        
   4632 ****        -7.2500  -5.7500  18.5000 Du        
   4633 ****        -7.2500  -5.7500  18.7500 Du        
   4634 ****        -7.2500  -5.7500  19.0000 Du        
   4635 ****        -7.2500  -5.7500  19.2500 Du        
   4636 ****        -7.2500  -5.7500  19.5000 Du        
   4637 ****        -7.2500  -5.7500  19.7500 Du        
   4638 ****        -7.2500  -5.7500  20.0000 Du        
   4639 ****        -7.2500  -5.5000  18.5000 Du        
   4640 ****        -7.2500  -5.5000  18.7500 Du        
   4641 ****        -7.2500  -5.5000  19.0000 Du        
   4642 ****        -7.2500  -5.5000  19.2500 Du        
   4643 ****        -7.2500  -5.5000  19.5000 Du        
   4644 ****        -7.2500  -5.5000  19.7500 Du        
   4645 ****        -7.2500  -5.5000  20.0000 Du        
   4646 ****        -7.2500  -5.2500  18.7500 Du        
   4647 ****        -7.2500  -5.2500  19.0000 Du        
   4648 ****        -7.2500  -5.2500  19.2500 Du        
   4649 ****        -7.2500  -5.2500  19.5000 Du        
   4650 ****        -7.2500  -5.2500  19.7500 Du        
   4651 ****        -7.2500  -5.2500  20.0000 Du        
   4652 ****        -7.2500  -5.2500  20.2500 Du        
   4653 ****        -7.2500  -5.0000  19.7500 Du        
   4654 ****        -7.2500  -5.0000  20.0000 Du        
   4655 ****        -7.2500  -5.0000  20.2500 Du        
   4656 ****        -7.2500  -4.2500  21.0000 Du        
   4657 ****        -7.2500  -4.2500  21.2500 Du        
   4658 ****        -7.2500  -4.2500  21.5000 Du        
   4659 ****        -7.2500  -4.0000  21.2500 Du        
   4660 ****        -7.2500  -4.0000  21.5000 Du        
   4661 ****        -7.2500  -4.0000  21.7500 Du        
   4662 ****        -7.2500  -4.0000  22.0000 Du        
   4663 ****        -7.2500  -3.7500  21.2500 Du        
   4664 ****        -7.2500  -3.7500  21.5000 Du        
   4665 ****        -7.2500  -3.7500  21.7500 Du        
   4666 ****        -7.2500  -3.7500  22.0000 Du        
   4667 ****        -7.2500  -3.7500  22.2500 Du        
   4668 ****        -7.2500  -3.7500  22.5000 Du        
   4669 ****        -7.2500  -3.7500  22.7500 Du        
   4670 ****        -7.2500  -3.5000  21.5000 Du        
   4671 ****        -7.2500  -3.5000  21.7500 Du        
   4672 ****        -7.2500  -3.5000  22.0000 Du        
   4673 ****        -7.2500  -3.5000  22.2500 Du        
   4674 ****        -7.2500  -3.5000  22.5000 Du        
   4675 ****        -7.2500  -3.5000  22.7500 Du        
   4676 ****        -7.2500  -3.5000  23.0000 Du        
   4677 ****        -7.2500  -3.5000  23.2500 Du        
   4678 ****        -7.2500  -3.5000  23.5000 Du        
   4679 ****        -7.2500  -3.5000  23.7500 Du        
   4680 ****        -7.2500  -3.2500  21.5000 Du        
   4681 ****        -7.2500  -3.2500  21.7500 Du        
   4682 ****        -7.2500  -3.2500  22.0000 Du        
   4683 ****        -7.2500  -3.2500  22.2500 Du        
   4684 ****        -7.2500  -3.2500  22.5000 Du        
   4685 ****        -7.2500  -3.2500  22.7500 Du        
   4686 ****        -7.2500  -3.2500  23.0000 Du        
   4687 ****        -7.2500  -3.2500  23.2500 Du        
   4688 ****        -7.2500  -3.2500  23.5000 Du        
   4689 ****        -7.2500  -3.2500  23.7500 Du        
   4690 ****        -7.2500  -3.0000  21.7500 Du        
   4691 ****        -7.2500  -3.0000  22.0000 Du        
   4692 ****        -7.2500  -3.0000  22.2500 Du        
   4693 ****        -7.2500  -3.0000  22.5000 Du        
   4694 ****        -7.2500  -3.0000  22.7500 Du        
   4695 ****        -7.2500  -3.0000  23.0000 Du        
   4696 ****        -7.2500  -3.0000  23.2500 Du        
   4697 ****        -7.2500  -3.0000  23.5000 Du        
   4698 ****        -7.2500  -2.7500  21.7500 Du        
   4699 ****        -7.2500  -2.7500  22.0000 Du        
   4700 ****        -7.2500  -2.7500  22.2500 Du        
   4701 ****        -7.2500  -2.7500  22.5000 Du        
   4702 ****        -7.2500  -2.7500  22.7500 Du        
   4703 ****        -7.2500  -2.7500  23.0000 Du        
   4704 ****        -7.2500  -2.7500  23.2500 Du        
   4705 ****        -7.2500  -2.7500  23.5000 Du        
   4706 ****        -7.2500  -2.5000  22.0000 Du        
   4707 ****        -7.2500  -2.5000  22.2500 Du        
   4708 ****        -7.2500  -2.5000  22.5000 Du        
   4709 ****        -7.2500  -2.5000  22.7500 Du        
   4710 ****        -7.2500  -2.5000  23.0000 Du        
   4711 ****        -7.2500  -2.5000  23.2500 Du        
   4712 ****        -7.2500  -2.5000  23.5000 Du        
   4713 ****        -7.2500  -2.2500  22.2500 Du        
   4714 ****        -7.2500  -2.2500  22.5000 Du        
   4715 ****        -7.2500  -2.2500  22.7500 Du        
   4716 ****        -7.2500  -2.2500  23.0000 Du        
   4717 ****        -7.2500  -2.2500  23.2500 Du        
   4718 ****        -7.2500  -2.0000  22.5000 Du        
   4719 ****        -7.2500  -2.0000  22.7500 Du        
   4720 ****        -7.2500  -2.0000  23.0000 Du        
   4721 ****        -7.2500  -2.0000  23.2500 Du        
   4722 ****        -7.2500  -1.7500  22.7500 Du        
   4723 ****        -7.2500  -1.7500  23.0000 Du        
   4724 ****        -7.2500  -1.7500  23.2500 Du        
   4725 ****        -7.2500  -1.5000  23.0000 Du        
   4726 ****        -7.0000  -6.5000  19.0000 Du        
   4727 ****        -7.0000  -6.5000  19.2500 Du        
   4728 ****        -7.0000  -6.5000  19.5000 Du        
   4729 ****        -7.0000  -6.5000  19.7500 Du        
   4730 ****        -7.0000  -6.2500  18.2500 Du        
   4731 ****        -7.0000  -6.2500  18.5000 Du        
   4732 ****        -7.0000  -6.2500  18.7500 Du        
   4733 ****        -7.0000  -6.2500  19.0000 Du        
   4734 ****        -7.0000  -6.2500  19.2500 Du        
   4735 ****        -7.0000  -6.2500  19.5000 Du        
   4736 ****        -7.0000  -6.2500  19.7500 Du        
   4737 ****        -7.0000  -6.0000  18.0000 Du        
   4738 ****        -7.0000  -6.0000  18.2500 Du        
   4739 ****        -7.0000  -6.0000  18.5000 Du        
   4740 ****        -7.0000  -6.0000  18.7500 Du        
   4741 ****        -7.0000  -6.0000  19.0000 Du        
   4742 ****        -7.0000  -6.0000  19.2500 Du        
   4743 ****        -7.0000  -6.0000  19.5000 Du        
   4744 ****        -7.0000  -6.0000  19.7500 Du        
   4745 ****        -7.0000  -6.0000  20.0000 Du        
   4746 ****        -7.0000  -5.7500  18.0000 Du        
   4747 ****        -7.0000  -5.7500  18.2500 Du        
   4748 ****        -7.0000  -5.7500  18.5000 Du        
   4749 ****        -7.0000  -5.7500  18.7500 Du        
   4750 ****        -7.0000  -5.7500  19.0000 Du        
   4751 ****        -7.0000  -5.7500  19.2500 Du        
   4752 ****        -7.0000  -5.7500  19.5000 Du        
   4753 ****        -7.0000  -5.7500  19.7500 Du        
   4754 ****        -7.0000  -5.7500  20.0000 Du        
   4755 ****        -7.0000  -5.5000  18.5000 Du        
   4756 ****        -7.0000  -5.5000  18.7500 Du        
   4757 ****        -7.0000  -5.5000  19.0000 Du        
   4758 ****        -7.0000  -5.5000  19.2500 Du        
   4759 ****        -7.0000  -5.5000  19.5000 Du        
   4760 ****        -7.0000  -5.5000  19.7500 Du        
   4761 ****        -7.0000  -5.5000  20.0000 Du        
   4762 ****        -7.0000  -5.2500  18.7500 Du        
   4763 ****        -7.0000  -5.2500  19.0000 Du        
   4764 ****        -7.0000  -5.2500  19.2500 Du        
   4765 ****        -7.0000  -5.2500  19.5000 Du        
   4766 ****        -7.0000  -5.2500  19.7500 Du        
   4767 ****        -7.0000  -5.2500  20.0000 Du        
   4768 ****        -7.0000  -5.2500  20.2500 Du        
   4769 ****        -7.0000  -5.0000  20.0000 Du        
   4770 ****        -7.0000  -5.0000  20.2500 Du        
   4771 ****        -7.0000  -4.2500  21.2500 Du        
   4772 ****        -7.0000  -4.2500  21.5000 Du        
   4773 ****        -7.0000  -4.0000  21.2500 Du        
   4774 ****        -7.0000  -4.0000  21.5000 Du        
   4775 ****        -7.0000  -4.0000  21.7500 Du        
   4776 ****        -7.0000  -4.0000  22.0000 Du        
   4777 ****        -7.0000  -3.7500  21.2500 Du        
   4778 ****        -7.0000  -3.7500  21.5000 Du        
   4779 ****        -7.0000  -3.7500  21.7500 Du        
   4780 ****        -7.0000  -3.7500  22.0000 Du        
   4781 ****        -7.0000  -3.7500  22.2500 Du        
   4782 ****        -7.0000  -3.7500  22.5000 Du        
   4783 ****        -7.0000  -3.7500  22.7500 Du        
   4784 ****        -7.0000  -3.7500  23.0000 Du        
   4785 ****        -7.0000  -3.5000  21.5000 Du        
   4786 ****        -7.0000  -3.5000  21.7500 Du        
   4787 ****        -7.0000  -3.5000  22.0000 Du        
   4788 ****        -7.0000  -3.5000  22.2500 Du        
   4789 ****        -7.0000  -3.5000  22.5000 Du        
   4790 ****        -7.0000  -3.5000  22.7500 Du        
   4791 ****        -7.0000  -3.5000  23.0000 Du        
   4792 ****        -7.0000  -3.5000  23.2500 Du        
   4793 ****        -7.0000  -3.5000  23.5000 Du        
   4794 ****        -7.0000  -3.2500  21.5000 Du        
   4795 ****        -7.0000  -3.2500  21.7500 Du        
   4796 ****        -7.0000  -3.2500  22.0000 Du        
   4797 ****        -7.0000  -3.2500  22.2500 Du        
   4798 ****        -7.0000  -3.2500  22.5000 Du        
   4799 ****        -7.0000  -3.2500  22.7500 Du        
   4800 ****        -7.0000  -3.2500  23.0000 Du        
   4801 ****        -7.0000  -3.2500  23.2500 Du        
   4802 ****        -7.0000  -3.2500  23.5000 Du        
   4803 ****        -7.0000  -3.0000  21.7500 Du        
   4804 ****        -7.0000  -3.0000  22.0000 Du        
   4805 ****        -7.0000  -3.0000  22.2500 Du        
   4806 ****        -7.0000  -3.0000  22.5000 Du        
   4807 ****        -7.0000  -3.0000  22.7500 Du        
   4808 ****        -7.0000  -3.0000  23.0000 Du        
   4809 ****        -7.0000  -3.0000  23.2500 Du        
   4810 ****        -7.0000  -3.0000  23.5000 Du        
   4811 ****        -7.0000  -2.7500  22.0000 Du        
   4812 ****        -7.0000  -2.7500  22.2500 Du        
   4813 ****        -7.0000  -2.7500  22.5000 Du        
   4814 ****        -7.0000  -2.7500  22.7500 Du        
   4815 ****        -7.0000  -2.7500  23.0000 Du        
   4816 ****        -7.0000  -2.7500  23.2500 Du        
   4817 ****        -7.0000  -2.5000  22.0000 Du        
   4818 ****        -7.0000  -2.5000  22.2500 Du        
   4819 ****        -7.0000  -2.5000  22.5000 Du        
   4820 ****        -7.0000  -2.5000  22.7500 Du        
   4821 ****        -7.0000  -2.5000  23.0000 Du        
   4822 ****        -7.0000  -2.5000  23.2500 Du        
   4823 ****        -7.0000  -2.2500  22.2500 Du        
   4824 ****        -7.0000  -2.2500  22.5000 Du        
   4825 ****        -7.0000  -2.2500  22.7500 Du        
   4826 ****        -7.0000  -2.2500  23.0000 Du        
   4827 ****        -7.0000  -2.2500  23.2500 Du        
   4828 ****        -7.0000  -2.0000  22.5000 Du        
   4829 ****        -7.0000  -2.0000  22.7500 Du        
   4830 ****        -7.0000  -2.0000  23.0000 Du        
   4831 ****        -7.0000  -1.7500  22.7500 Du        
   4832 ****        -7.0000  -1.7500  23.0000 Du        
   4833 ****        -6.7500  -6.2500  18.7500 Du        
   4834 ****        -6.7500  -6.2500  19.0000 Du        
   4835 ****        -6.7500  -6.2500  19.2500 Du        
   4836 ****        -6.7500  -6.2500  19.5000 Du        
   4837 ****        -6.7500  -6.2500  19.7500 Du        
   4838 ****        -6.7500  -6.0000  18.2500 Du        
   4839 ****        -6.7500  -6.0000  18.5000 Du        
   4840 ****        -6.7500  -6.0000  18.7500 Du        
   4841 ****        -6.7500  -6.0000  19.0000 Du        
   4842 ****        -6.7500  -6.0000  19.2500 Du        
   4843 ****        -6.7500  -6.0000  19.5000 Du        
   4844 ****        -6.7500  -6.0000  19.7500 Du        
   4845 ****        -6.7500  -5.7500  18.2500 Du        
   4846 ****        -6.7500  -5.7500  18.5000 Du        
   4847 ****        -6.7500  -5.7500  18.7500 Du        
   4848 ****        -6.7500  -5.7500  19.0000 Du        
   4849 ****        -6.7500  -5.7500  19.2500 Du        
   4850 ****        -6.7500  -5.7500  19.5000 Du        
   4851 ****        -6.7500  -5.7500  19.7500 Du        
   4852 ****        -6.7500  -5.7500  20.0000 Du        
   4853 ****        -6.7500  -5.5000  18.5000 Du        
   4854 ****        -6.7500  -5.5000  18.7500 Du        
   4855 ****        -6.7500  -5.5000  19.0000 Du        
   4856 ****        -6.7500  -5.5000  19.2500 Du        
   4857 ****        -6.7500  -5.5000  19.5000 Du        
   4858 ****        -6.7500  -5.5000  19.7500 Du        
   4859 ****        -6.7500  -5.5000  20.0000 Du        
   4860 ****        -6.7500  -5.2500  19.0000 Du        
   4861 ****        -6.7500  -5.2500  19.2500 Du        
   4862 ****        -6.7500  -5.2500  19.5000 Du        
   4863 ****        -6.7500  -5.2500  19.7500 Du        
   4864 ****        -6.7500  -5.2500  20.0000 Du        
   4865 ****        -6.7500  -5.0000  20.0000 Du        
   4866 ****        -6.7500  -5.0000  20.2500 Du        
   4867 ****        -6.7500  -4.2500  21.2500 Du        
   4868 ****        -6.7500  -4.0000  21.2500 Du        
   4869 ****        -6.7500  -4.0000  21.5000 Du        
   4870 ****        -6.7500  -4.0000  21.7500 Du        
   4871 ****        -6.7500  -4.0000  22.0000 Du        
   4872 ****        -6.7500  -4.0000  22.2500 Du        
   4873 ****        -6.7500  -3.7500  21.5000 Du        
   4874 ****        -6.7500  -3.7500  21.7500 Du        
   4875 ****        -6.7500  -3.7500  22.0000 Du        
   4876 ****        -6.7500  -3.7500  22.2500 Du        
   4877 ****        -6.7500  -3.7500  22.5000 Du        
   4878 ****        -6.7500  -3.7500  22.7500 Du        
   4879 ****        -6.7500  -3.7500  23.0000 Du        
   4880 ****        -6.7500  -3.5000  21.5000 Du        
   4881 ****        -6.7500  -3.5000  21.7500 Du        
   4882 ****        -6.7500  -3.5000  22.0000 Du        
   4883 ****        -6.7500  -3.5000  22.2500 Du        
   4884 ****        -6.7500  -3.5000  22.5000 Du        
   4885 ****        -6.7500  -3.5000  22.7500 Du        
   4886 ****        -6.7500  -3.5000  23.0000 Du        
   4887 ****        -6.7500  -3.5000  23.2500 Du        
   4888 ****        -6.7500  -3.2500  21.7500 Du        
   4889 ****        -6.7500  -3.2500  22.0000 Du        
   4890 ****        -6.7500  -3.2500  22.2500 Du        
   4891 ****        -6.7500  -3.2500  22.5000 Du        
   4892 ****        -6.7500  -3.2500  22.7500 Du        
   4893 ****        -6.7500  -3.2500  23.0000 Du        
   4894 ****        -6.7500  -3.2500  23.2500 Du        
   4895 ****        -6.7500  -3.0000  21.7500 Du        
   4896 ****        -6.7500  -3.0000  22.0000 Du        
   4897 ****        -6.7500  -3.0000  22.2500 Du        
   4898 ****        -6.7500  -3.0000  22.5000 Du        
   4899 ****        -6.7500  -3.0000  22.7500 Du        
   4900 ****        -6.7500  -3.0000  23.0000 Du        
   4901 ****        -6.7500  -3.0000  23.2500 Du        
   4902 ****        -6.7500  -2.7500  22.0000 Du        
   4903 ****        -6.7500  -2.7500  22.2500 Du        
   4904 ****        -6.7500  -2.7500  22.5000 Du        
   4905 ****        -6.7500  -2.7500  22.7500 Du        
   4906 ****        -6.7500  -2.7500  23.0000 Du        
   4907 ****        -6.7500  -2.5000  22.2500 Du        
   4908 ****        -6.7500  -2.5000  22.5000 Du        
   4909 ****        -6.7500  -2.5000  22.7500 Du        
   4910 ****        -6.7500  -2.5000  23.0000 Du        
   4911 ****        -6.7500  -2.2500  22.5000 Du        
   4912 ****        -6.7500  -2.2500  22.7500 Du        
   4913 ****        -6.7500  -2.2500  23.0000 Du        
   4914 ****        -6.7500  -2.0000  22.7500 Du        
   4915 ****        -6.5000  -6.2500  19.2500 Du        
   4916 ****        -6.5000  -6.2500  19.5000 Du        
   4917 ****        -6.5000  -6.2500  19.7500 Du        
   4918 ****        -6.5000  -6.0000  18.5000 Du        
   4919 ****        -6.5000  -6.0000  18.7500 Du        
   4920 ****        -6.5000  -6.0000  19.0000 Du        
   4921 ****        -6.5000  -6.0000  19.2500 Du        
   4922 ****        -6.5000  -6.0000  19.5000 Du        
   4923 ****        -6.5000  -6.0000  19.7500 Du        
   4924 ****        -6.5000  -5.7500  18.2500 Du        
   4925 ****        -6.5000  -5.7500  18.5000 Du        
   4926 ****        -6.5000  -5.7500  18.7500 Du        
   4927 ****        -6.5000  -5.7500  19.0000 Du        
   4928 ****        -6.5000  -5.7500  19.2500 Du        
   4929 ****        -6.5000  -5.7500  19.5000 Du        
   4930 ****        -6.5000  -5.7500  19.7500 Du        
   4931 ****        -6.5000  -5.5000  18.5000 Du        
   4932 ****        -6.5000  -5.5000  18.7500 Du        
   4933 ****        -6.5000  -5.5000  19.0000 Du        
   4934 ****        -6.5000  -5.5000  19.2500 Du        
   4935 ****        -6.5000  -5.5000  19.5000 Du        
   4936 ****        -6.5000  -5.5000  19.7500 Du        
   4937 ****        -6.5000  -5.5000  20.0000 Du        
   4938 ****        -6.5000  -5.2500  19.0000 Du        
   4939 ****        -6.5000  -5.2500  19.2500 Du        
   4940 ****        -6.5000  -5.2500  19.5000 Du        
   4941 ****        -6.5000  -5.2500  19.7500 Du        
   4942 ****        -6.5000  -5.2500  20.0000 Du        
   4943 ****        -6.5000  -5.0000  20.0000 Du        
   4944 ****        -6.5000  -5.0000  20.2500 Du        
   4945 ****        -6.5000  -4.2500  21.2500 Du        
   4946 ****        -6.5000  -4.0000  21.2500 Du        
   4947 ****        -6.5000  -4.0000  21.5000 Du        
   4948 ****        -6.5000  -4.0000  21.7500 Du        
   4949 ****        -6.5000  -4.0000  22.0000 Du        
   4950 ****        -6.5000  -4.0000  22.2500 Du        
   4951 ****        -6.5000  -3.7500  21.2500 Du        
   4952 ****        -6.5000  -3.7500  21.5000 Du        
   4953 ****        -6.5000  -3.7500  21.7500 Du        
   4954 ****        -6.5000  -3.7500  22.0000 Du        
   4955 ****        -6.5000  -3.7500  22.2500 Du        
   4956 ****        -6.5000  -3.7500  22.5000 Du        
   4957 ****        -6.5000  -3.7500  22.7500 Du        
   4958 ****        -6.5000  -3.7500  23.0000 Du        
   4959 ****        -6.5000  -3.5000  21.5000 Du        
   4960 ****        -6.5000  -3.5000  21.7500 Du        
   4961 ****        -6.5000  -3.5000  22.0000 Du        
   4962 ****        -6.5000  -3.5000  22.2500 Du        
   4963 ****        -6.5000  -3.5000  22.5000 Du        
   4964 ****        -6.5000  -3.5000  22.7500 Du        
   4965 ****        -6.5000  -3.5000  23.0000 Du        
   4966 ****        -6.5000  -3.2500  21.5000 Du        
   4967 ****        -6.5000  -3.2500  21.7500 Du        
   4968 ****        -6.5000  -3.2500  22.0000 Du        
   4969 ****        -6.5000  -3.2500  22.2500 Du        
   4970 ****        -6.5000  -3.2500  22.5000 Du        
   4971 ****        -6.5000  -3.2500  22.7500 Du        
   4972 ****        -6.5000  -3.2500  23.0000 Du        
   4973 ****        -6.5000  -3.0000  21.7500 Du        
   4974 ****        -6.5000  -3.0000  22.0000 Du        
   4975 ****        -6.5000  -3.0000  22.2500 Du        
   4976 ****        -6.5000  -3.0000  22.5000 Du        
   4977 ****        -6.5000  -3.0000  22.7500 Du        
   4978 ****        -6.5000  -3.0000  23.0000 Du        
   4979 ****        -6.5000  -2.7500  22.0000 Du        
   4980 ****        -6.5000  -2.7500  22.2500 Du        
   4981 ****        -6.5000  -2.7500  22.5000 Du        
   4982 ****        -6.5000  -2.7500  22.7500 Du        
   4983 ****        -6.5000  -2.7500  23.0000 Du        
   4984 ****        -6.5000  -2.5000  22.2500 Du        
   4985 ****        -6.5000  -2.5000  22.5000 Du        
   4986 ****        -6.5000  -2.5000  22.7500 Du        
   4987 ****        -6.2500  -6.2500  19.5000 Du        
   4988 ****        -6.2500  -6.0000  18.7500 Du        
   4989 ****        -6.2500  -6.0000  19.0000 Du        
   4990 ****        -6.2500  -6.0000  19.2500 Du        
   4991 ****        -6.2500  -6.0000  19.5000 Du        
   4992 ****        -6.2500  -6.0000  19.7500 Du        
   4993 ****        -6.2500  -5.7500  18.2500 Du        
   4994 ****        -6.2500  -5.7500  18.5000 Du        
   4995 ****        -6.2500  -5.7500  18.7500 Du        
   4996 ****        -6.2500  -5.7500  19.0000 Du        
   4997 ****        -6.2500  -5.7500  19.2500 Du        
   4998 ****        -6.2500  -5.7500  19.5000 Du        
   4999 ****        -6.2500  -5.7500  19.7500 Du        
   5000 ****        -6.2500  -5.5000  18.5000 Du        
   5001 ****        -6.2500  -5.5000  18.7500 Du        
   5002 ****        -6.2500  -5.5000  19.0000 Du        
   5003 ****        -6.2500  -5.5000  19.2500 Du        
   5004 ****        -6.2500  -5.5000  19.5000 Du        
   5005 ****        -6.2500  -5.5000  19.7500 Du        
   5006 ****        -6.2500  -5.5000  20.0000 Du        
   5007 ****        -6.2500  -5.2500  19.0000 Du        
   5008 ****        -6.2500  -5.2500  19.2500 Du        
   5009 ****        -6.2500  -5.2500  19.5000 Du        
   5010 ****        -6.2500  -5.2500  19.7500 Du        
   5011 ****        -6.2500  -5.2500  20.0000 Du        
   5012 ****        -6.2500  -5.0000  19.7500 Du        
   5013 ****        -6.2500  -5.0000  20.0000 Du        
   5014 ****        -6.2500  -5.0000  20.2500 Du        
   5015 ****        -6.2500  -4.2500  21.0000 Du        
   5016 ****        -6.2500  -4.2500  21.2500 Du        
   5017 ****        -6.2500  -4.0000  21.2500 Du        
   5018 ****        -6.2500  -4.0000  21.5000 Du        
   5019 ****        -6.2500  -4.0000  21.7500 Du        
   5020 ****        -6.2500  -4.0000  22.0000 Du        
   5021 ****        -6.2500  -4.0000  22.2500 Du        
   5022 ****        -6.2500  -4.0000  22.5000 Du        
   5023 ****        -6.2500  -3.7500  21.2500 Du        
   5024 ****        -6.2500  -3.7500  21.5000 Du        
   5025 ****        -6.2500  -3.7500  21.7500 Du        
   5026 ****        -6.2500  -3.7500  22.0000 Du        
   5027 ****        -6.2500  -3.7500  22.2500 Du        
   5028 ****        -6.2500  -3.7500  22.5000 Du        
   5029 ****        -6.2500  -3.7500  22.7500 Du        
   5030 ****        -6.2500  -3.7500  23.0000 Du        
   5031 ****        -6.2500  -3.5000  21.5000 Du        
   5032 ****        -6.2500  -3.5000  21.7500 Du        
   5033 ****        -6.2500  -3.5000  22.0000 Du        
   5034 ****        -6.2500  -3.5000  22.2500 Du        
   5035 ****        -6.2500  -3.5000  22.5000 Du        
   5036 ****        -6.2500  -3.5000  22.7500 Du        
   5037 ****        -6.2500  -3.5000  23.0000 Du        
   5038 ****        -6.2500  -3.2500  21.5000 Du        
   5039 ****        -6.2500  -3.2500  21.7500 Du        
   5040 ****        -6.2500  -3.2500  22.0000 Du        
   5041 ****        -6.2500  -3.2500  22.2500 Du        
   5042 ****        -6.2500  -3.2500  22.5000 Du        
   5043 ****        -6.2500  -3.2500  22.7500 Du        
   5044 ****        -6.2500  -3.0000  21.7500 Du        
   5045 ****        -6.2500  -3.0000  22.0000 Du        
   5046 ****        -6.2500  -3.0000  22.2500 Du        
   5047 ****        -6.2500  -3.0000  22.5000 Du        
   5048 ****        -6.2500  -3.0000  22.7500 Du        
   5049 ****        -6.2500  -2.7500  22.2500 Du        
   5050 ****        -6.2500  -2.7500  22.5000 Du        
   5051 ****        -6.0000  -6.0000  19.0000 Du        
   5052 ****        -6.0000  -6.0000  19.2500 Du        
   5053 ****        -6.0000  -6.0000  19.5000 Du        
   5054 ****        -6.0000  -6.0000  19.7500 Du        
   5055 ****        -6.0000  -5.7500  18.5000 Du        
   5056 ****        -6.0000  -5.7500  18.7500 Du        
   5057 ****        -6.0000  -5.7500  19.0000 Du        
   5058 ****        -6.0000  -5.7500  19.2500 Du        
   5059 ****        -6.0000  -5.7500  19.5000 Du        
   5060 ****        -6.0000  -5.7500  19.7500 Du        
   5061 ****        -6.0000  -5.5000  18.5000 Du        
   5062 ****        -6.0000  -5.5000  18.7500 Du        
   5063 ****        -6.0000  -5.5000  19.0000 Du        
   5064 ****        -6.0000  -5.5000  19.2500 Du        
   5065 ****        -6.0000  -5.5000  19.5000 Du        
   5066 ****        -6.0000  -5.5000  19.7500 Du        
   5067 ****        -6.0000  -5.5000  20.0000 Du        
   5068 ****        -6.0000  -5.2500  18.7500 Du        
   5069 ****        -6.0000  -5.2500  19.0000 Du        
   5070 ****        -6.0000  -5.2500  19.2500 Du        
   5071 ****        -6.0000  -5.2500  19.5000 Du        
   5072 ****        -6.0000  -5.2500  19.7500 Du        
   5073 ****        -6.0000  -5.2500  20.0000 Du        
   5074 ****        -6.0000  -5.0000  19.7500 Du        
   5075 ****        -6.0000  -5.0000  20.0000 Du        
   5076 ****        -6.0000  -5.0000  20.2500 Du        
   5077 ****        -6.0000  -4.2500  21.0000 Du        
   5078 ****        -6.0000  -4.2500  21.2500 Du        
   5079 ****        -6.0000  -4.0000  21.2500 Du        
   5080 ****        -6.0000  -4.0000  21.5000 Du        
   5081 ****        -6.0000  -4.0000  21.7500 Du        
   5082 ****        -6.0000  -4.0000  22.0000 Du        
   5083 ****        -6.0000  -4.0000  22.2500 Du        
   5084 ****        -6.0000  -4.0000  22.5000 Du        
   5085 ****        -6.0000  -3.7500  21.2500 Du        
   5086 ****        -6.0000  -3.7500  21.5000 Du        
   5087 ****        -6.0000  -3.7500  21.7500 Du        
   5088 ****        -6.0000  -3.7500  22.0000 Du        
   5089 ****        -6.0000  -3.7500  22.2500 Du        
   5090 ****        -6.0000  -3.7500  22.5000 Du        
   5091 ****        -6.0000  -3.7500  22.7500 Du        
   5092 ****        -6.0000  -3.5000  21.5000 Du        
   5093 ****        -6.0000  -3.5000  21.7500 Du        
   5094 ****        -6.0000  -3.5000  22.0000 Du        
   5095 ****        -6.0000  -3.5000  22.2500 Du        
   5096 ****        -6.0000  -3.5000  22.5000 Du        
   5097 ****        -6.0000  -3.5000  22.7500 Du        
   5098 ****        -6.0000  -3.2500  21.7500 Du        
   5099 ****        -6.0000  -3.2500  22.0000 Du        
   5100 ****        -6.0000  -3.2500  22.2500 Du        
   5101 ****        -6.0000  -3.2500  22.5000 Du        
   5102 ****        -6.0000  -3.2500  22.7500 Du        
   5103 ****        -6.0000  -3.0000  22.0000 Du        
   5104 ****        -6.0000  -3.0000  22.2500 Du        
   5105 ****        -6.0000  -3.0000  22.5000 Du        
   5106 ****        -5.7500  -6.0000  19.2500 Du        
   5107 ****        -5.7500  -6.0000  19.5000 Du        
   5108 ****        -5.7500  -6.0000  19.7500 Du        
   5109 ****        -5.7500  -5.7500  18.5000 Du        
   5110 ****        -5.7500  -5.7500  18.7500 Du        
   5111 ****        -5.7500  -5.7500  19.0000 Du        
   5112 ****        -5.7500  -5.7500  19.2500 Du        
   5113 ****        -5.7500  -5.7500  19.5000 Du        
   5114 ****        -5.7500  -5.7500  19.7500 Du        
   5115 ****        -5.7500  -5.5000  18.5000 Du        
   5116 ****        -5.7500  -5.5000  18.7500 Du        
   5117 ****        -5.7500  -5.5000  19.0000 Du        
   5118 ****        -5.7500  -5.5000  19.2500 Du        
   5119 ****        -5.7500  -5.5000  19.5000 Du        
   5120 ****        -5.7500  -5.5000  19.7500 Du        
   5121 ****        -5.7500  -5.5000  20.0000 Du        
   5122 ****        -5.7500  -5.2500  18.7500 Du        
   5123 ****        -5.7500  -5.2500  19.0000 Du        
   5124 ****        -5.7500  -5.2500  19.2500 Du        
   5125 ****        -5.7500  -5.2500  19.5000 Du        
   5126 ****        -5.7500  -5.2500  19.7500 Du        
   5127 ****        -5.7500  -5.2500  20.0000 Du        
   5128 ****        -5.7500  -5.2500  20.2500 Du        
   5129 ****        -5.7500  -5.0000  19.5000 Du        
   5130 ****        -5.7500  -5.0000  19.7500 Du        
   5131 ****        -5.7500  -5.0000  20.0000 Du        
   5132 ****        -5.7500  -5.0000  20.2500 Du        
   5133 ****        -5.7500  -4.7500  20.0000 Du        
   5134 ****        -5.7500  -4.7500  20.2500 Du        
   5135 ****        -5.7500  -4.7500  20.5000 Du        
   5136 ****        -5.7500  -4.5000  20.7500 Du        
   5137 ****        -5.7500  -4.2500  21.0000 Du        
   5138 ****        -5.7500  -4.2500  21.2500 Du        
   5139 ****        -5.7500  -4.2500  21.5000 Du        
   5140 ****        -5.7500  -4.0000  21.0000 Du        
   5141 ****        -5.7500  -4.0000  21.2500 Du        
   5142 ****        -5.7500  -4.0000  21.5000 Du        
   5143 ****        -5.7500  -4.0000  21.7500 Du        
   5144 ****        -5.7500  -4.0000  22.0000 Du        
   5145 ****        -5.7500  -4.0000  22.2500 Du        
   5146 ****        -5.7500  -3.7500  21.2500 Du        
   5147 ****        -5.7500  -3.7500  21.5000 Du        
   5148 ****        -5.7500  -3.7500  21.7500 Du        
   5149 ****        -5.7500  -3.7500  22.0000 Du        
   5150 ****        -5.7500  -3.7500  22.2500 Du        
   5151 ****        -5.7500  -3.7500  22.5000 Du        
   5152 ****        -5.7500  -3.5000  21.5000 Du        
   5153 ****        -5.7500  -3.5000  21.7500 Du        
   5154 ****        -5.7500  -3.5000  22.0000 Du        
   5155 ****        -5.7500  -3.5000  22.2500 Du        
   5156 ****        -5.7500  -3.5000  22.5000 Du        
   5157 ****        -5.7500  -3.2500  21.7500 Du        
   5158 ****        -5.7500  -3.2500  22.0000 Du        
   5159 ****        -5.7500  -3.2500  22.2500 Du        
   5160 ****        -5.5000  -6.0000  19.2500 Du        
   5161 ****        -5.5000  -6.0000  19.5000 Du        
   5162 ****        -5.5000  -6.0000  19.7500 Du        
   5163 ****        -5.5000  -5.7500  18.7500 Du        
   5164 ****        -5.5000  -5.7500  19.0000 Du        
   5165 ****        -5.5000  -5.7500  19.2500 Du        
   5166 ****        -5.5000  -5.7500  19.5000 Du        
   5167 ****        -5.5000  -5.7500  19.7500 Du        
   5168 ****        -5.5000  -5.7500  20.0000 Du        
   5169 ****        -5.5000  -5.5000  18.5000 Du        
   5170 ****        -5.5000  -5.5000  18.7500 Du        
   5171 ****        -5.5000  -5.5000  19.0000 Du        
   5172 ****        -5.5000  -5.5000  19.2500 Du        
   5173 ****        -5.5000  -5.5000  19.5000 Du        
   5174 ****        -5.5000  -5.5000  19.7500 Du        
   5175 ****        -5.5000  -5.5000  20.0000 Du        
   5176 ****        -5.5000  -5.2500  18.7500 Du        
   5177 ****        -5.5000  -5.2500  19.0000 Du        
   5178 ****        -5.5000  -5.2500  19.2500 Du        
   5179 ****        -5.5000  -5.2500  19.5000 Du        
   5180 ****        -5.5000  -5.2500  19.7500 Du        
   5181 ****        -5.5000  -5.2500  20.0000 Du        
   5182 ****        -5.5000  -5.2500  20.2500 Du        
   5183 ****        -5.5000  -5.0000  19.2500 Du        
   5184 ****        -5.5000  -5.0000  19.5000 Du        
   5185 ****        -5.5000  -5.0000  19.7500 Du        
   5186 ****        -5.5000  -5.0000  20.0000 Du        
   5187 ****        -5.5000  -5.0000  20.2500 Du        
   5188 ****        -5.5000  -4.7500  20.0000 Du        
   5189 ****        -5.5000  -4.7500  20.2500 Du        
   5190 ****        -5.5000  -4.7500  20.5000 Du        
   5191 ****        -5.5000  -4.5000  20.5000 Du        
   5192 ****        -5.5000  -4.5000  20.7500 Du        
   5193 ****        -5.5000  -4.5000  21.0000 Du        
   5194 ****        -5.5000  -4.2500  20.7500 Du        
   5195 ****        -5.5000  -4.2500  21.0000 Du        
   5196 ****        -5.5000  -4.2500  21.2500 Du        
   5197 ****        -5.5000  -4.2500  21.5000 Du        
   5198 ****        -5.5000  -4.0000  21.0000 Du        
   5199 ****        -5.5000  -4.0000  21.2500 Du        
   5200 ****        -5.5000  -4.0000  21.5000 Du        
   5201 ****        -5.5000  -4.0000  21.7500 Du        
   5202 ****        -5.5000  -4.0000  22.0000 Du        
   5203 ****        -5.5000  -3.7500  21.2500 Du        
   5204 ****        -5.5000  -3.7500  21.5000 Du        
   5205 ****        -5.5000  -3.7500  21.7500 Du        
   5206 ****        -5.5000  -3.7500  22.0000 Du        
   5207 ****        -5.5000  -3.7500  22.2500 Du        
   5208 ****        -5.5000  -3.5000  21.5000 Du        
   5209 ****        -5.5000  -3.5000  21.7500 Du        
   5210 ****        -5.5000  -3.5000  22.0000 Du        
   5211 ****        -5.5000  -3.5000  22.2500 Du        
   5212 ****        -5.2500  -6.0000  19.2500 Du        
   5213 ****        -5.2500  -6.0000  19.5000 Du        
   5214 ****        -5.2500  -6.0000  19.7500 Du        
   5215 ****        -5.2500  -5.7500  18.7500 Du        
   5216 ****        -5.2500  -5.7500  19.0000 Du        
   5217 ****        -5.2500  -5.7500  19.2500 Du        
   5218 ****        -5.2500  -5.7500  19.5000 Du        
   5219 ****        -5.2500  -5.7500  19.7500 Du        
   5220 ****        -5.2500  -5.7500  20.0000 Du        
   5221 ****        -5.2500  -5.5000  18.5000 Du        
   5222 ****        -5.2500  -5.5000  18.7500 Du        
   5223 ****        -5.2500  -5.5000  19.0000 Du        
   5224 ****        -5.2500  -5.5000  19.2500 Du        
   5225 ****        -5.2500  -5.5000  19.5000 Du        
   5226 ****        -5.2500  -5.5000  19.7500 Du        
   5227 ****        -5.2500  -5.5000  20.0000 Du        
   5228 ****        -5.2500  -5.2500  18.7500 Du        
   5229 ****        -5.2500  -5.2500  19.0000 Du        
   5230 ****        -5.2500  -5.2500  19.2500 Du        
   5231 ****        -5.2500  -5.2500  19.5000 Du        
   5232 ****        -5.2500  -5.2500  19.7500 Du        
   5233 ****        -5.2500  -5.2500  20.0000 Du        
   5234 ****        -5.2500  -5.2500  20.2500 Du        
   5235 ****        -5.2500  -5.0000  19.0000 Du        
   5236 ****        -5.2500  -5.0000  19.2500 Du        
   5237 ****        -5.2500  -5.0000  19.5000 Du        
   5238 ****        -5.2500  -5.0000  19.7500 Du        
   5239 ****        -5.2500  -5.0000  20.0000 Du        
   5240 ****        -5.2500  -5.0000  20.2500 Du        
   5241 ****        -5.2500  -5.0000  20.5000 Du        
   5242 ****        -5.2500  -4.7500  19.5000 Du        
   5243 ****        -5.2500  -4.7500  19.7500 Du        
   5244 ****        -5.2500  -4.7500  20.0000 Du        
   5245 ****        -5.2500  -4.7500  20.2500 Du        
   5246 ****        -5.2500  -4.7500  20.5000 Du        
   5247 ****        -5.2500  -4.7500  20.7500 Du        
   5248 ****        -5.2500  -4.5000  20.2500 Du        
   5249 ****        -5.2500  -4.5000  20.5000 Du        
   5250 ****        -5.2500  -4.5000  20.7500 Du        
   5251 ****        -5.2500  -4.5000  21.0000 Du        
   5252 ****        -5.2500  -4.2500  20.5000 Du        
   5253 ****        -5.2500  -4.2500  20.7500 Du        
   5254 ****        -5.2500  -4.2500  21.0000 Du        
   5255 ****        -5.2500  -4.2500  21.2500 Du        
   5256 ****        -5.2500  -4.2500  21.5000 Du        
   5257 ****        -5.2500  -4.0000  20.7500 Du        
   5258 ****        -5.2500  -4.0000  21.0000 Du        
   5259 ****        -5.2500  -4.0000  21.2500 Du        
   5260 ****        -5.2500  -4.0000  21.5000 Du        
   5261 ****        -5.2500  -4.0000  21.7500 Du        
   5262 ****        -5.2500  -3.7500  21.0000 Du        
   5263 ****        -5.2500  -3.7500  21.2500 Du        
   5264 ****        -5.2500  -3.7500  21.5000 Du        
   5265 ****        -5.2500  -3.7500  21.7500 Du        
   5266 ****        -5.2500  -3.7500  22.0000 Du        
   5267 ****        -5.0000  -6.0000  19.2500 Du        
   5268 ****        -5.0000  -6.0000  19.5000 Du        
   5269 ****        -5.0000  -6.0000  19.7500 Du        
   5270 ****        -5.0000  -5.7500  18.7500 Du        
   5271 ****        -5.0000  -5.7500  19.0000 Du        
   5272 ****        -5.0000  -5.7500  19.2500 Du        
   5273 ****        -5.0000  -5.7500  19.5000 Du        
   5274 ****        -5.0000  -5.7500  19.7500 Du        
   5275 ****        -5.0000  -5.7500  20.0000 Du        
   5276 ****        -5.0000  -5.5000  18.7500 Du        
   5277 ****        -5.0000  -5.5000  19.0000 Du        
   5278 ****        -5.0000  -5.5000  19.2500 Du        
   5279 ****        -5.0000  -5.5000  19.5000 Du        
   5280 ****        -5.0000  -5.5000  19.7500 Du        
   5281 ****        -5.0000  -5.5000  20.0000 Du        
   5282 ****        -5.0000  -5.5000  20.2500 Du        
   5283 ****        -5.0000  -5.2500  18.7500 Du        
   5284 ****        -5.0000  -5.2500  19.0000 Du        
   5285 ****        -5.0000  -5.2500  19.2500 Du        
   5286 ****        -5.0000  -5.2500  19.5000 Du        
   5287 ****        -5.0000  -5.2500  19.7500 Du        
   5288 ****        -5.0000  -5.2500  20.0000 Du        
   5289 ****        -5.0000  -5.2500  20.2500 Du        
   5290 ****        -5.0000  -5.2500  20.5000 Du        
   5291 ****        -5.0000  -5.0000  19.0000 Du        
   5292 ****        -5.0000  -5.0000  19.2500 Du        
   5293 ****        -5.0000  -5.0000  19.5000 Du        
   5294 ****        -5.0000  -5.0000  19.7500 Du        
   5295 ****        -5.0000  -5.0000  20.0000 Du        
   5296 ****        -5.0000  -5.0000  20.2500 Du        
   5297 ****        -5.0000  -5.0000  20.5000 Du        
   5298 ****        -5.0000  -4.7500  19.5000 Du        
   5299 ****        -5.0000  -4.7500  19.7500 Du        
   5300 ****        -5.0000  -4.7500  20.0000 Du        
   5301 ****        -5.0000  -4.7500  20.2500 Du        
   5302 ****        -5.0000  -4.7500  20.5000 Du        
   5303 ****        -5.0000  -4.7500  20.7500 Du        
   5304 ****        -5.0000  -4.7500  21.0000 Du        
   5305 ****        -5.0000  -4.5000  20.0000 Du        
   5306 ****        -5.0000  -4.5000  20.2500 Du        
   5307 ****        -5.0000  -4.5000  20.5000 Du        
   5308 ****        -5.0000  -4.5000  20.7500 Du        
   5309 ****        -5.0000  -4.5000  21.0000 Du        
   5310 ****        -5.0000  -4.5000  21.2500 Du        
   5311 ****        -5.0000  -4.2500  20.2500 Du        
   5312 ****        -5.0000  -4.2500  20.5000 Du        
   5313 ****        -5.0000  -4.2500  20.7500 Du        
   5314 ****        -5.0000  -4.2500  21.0000 Du        
   5315 ****        -5.0000  -4.2500  21.2500 Du        
   5316 ****        -5.0000  -4.2500  21.5000 Du        
   5317 ****        -5.0000  -4.0000  20.5000 Du        
   5318 ****        -5.0000  -4.0000  20.7500 Du        
   5319 ****        -5.0000  -4.0000  21.0000 Du        
   5320 ****        -5.0000  -4.0000  21.2500 Du        
   5321 ****        -5.0000  -4.0000  21.5000 Du        
   5322 ****        -5.0000  -4.0000  21.7500 Du        
   5323 ****        -5.0000  -3.7500  21.0000 Du        
   5324 ****        -5.0000  -3.7500  21.2500 Du        
   5325 ****        -5.0000  -3.7500  21.5000 Du        
   5326 ****        -5.0000  -3.7500  21.7500 Du        
   5327 ****        -4.7500  -6.0000  19.2500 Du        
   5328 ****        -4.7500  -6.0000  19.5000 Du        
   5329 ****        -4.7500  -6.0000  19.7500 Du        
   5330 ****        -4.7500  -6.0000  20.0000 Du        
   5331 ****        -4.7500  -5.7500  19.0000 Du        
   5332 ****        -4.7500  -5.7500  19.2500 Du        
   5333 ****        -4.7500  -5.7500  19.5000 Du        
   5334 ****        -4.7500  -5.7500  19.7500 Du        
   5335 ****        -4.7500  -5.7500  20.0000 Du        
   5336 ****        -4.7500  -5.7500  20.2500 Du        
   5337 ****        -4.7500  -5.5000  18.7500 Du        
   5338 ****        -4.7500  -5.5000  19.0000 Du        
   5339 ****        -4.7500  -5.5000  19.2500 Du        
   5340 ****        -4.7500  -5.5000  19.5000 Du        
   5341 ****        -4.7500  -5.5000  19.7500 Du        
   5342 ****        -4.7500  -5.5000  20.0000 Du        
   5343 ****        -4.7500  -5.5000  20.2500 Du        
   5344 ****        -4.7500  -5.2500  18.7500 Du        
   5345 ****        -4.7500  -5.2500  19.0000 Du        
   5346 ****        -4.7500  -5.2500  19.2500 Du        
   5347 ****        -4.7500  -5.2500  19.5000 Du        
   5348 ****        -4.7500  -5.2500  19.7500 Du        
   5349 ****        -4.7500  -5.2500  20.0000 Du        
   5350 ****        -4.7500  -5.2500  20.2500 Du        
   5351 ****        -4.7500  -5.2500  20.5000 Du        
   5352 ****        -4.7500  -5.0000  19.0000 Du        
   5353 ****        -4.7500  -5.0000  19.2500 Du        
   5354 ****        -4.7500  -5.0000  19.5000 Du        
   5355 ****        -4.7500  -5.0000  19.7500 Du        
   5356 ****        -4.7500  -5.0000  20.0000 Du        
   5357 ****        -4.7500  -5.0000  20.2500 Du        
   5358 ****        -4.7500  -5.0000  20.5000 Du        
   5359 ****        -4.7500  -5.0000  20.7500 Du        
   5360 ****        -4.7500  -4.7500  19.2500 Du        
   5361 ****        -4.7500  -4.7500  19.5000 Du        
   5362 ****        -4.7500  -4.7500  19.7500 Du        
   5363 ****        -4.7500  -4.7500  20.0000 Du        
   5364 ****        -4.7500  -4.7500  20.2500 Du        
   5365 ****        -4.7500  -4.7500  20.5000 Du        
   5366 ****        -4.7500  -4.7500  20.7500 Du        
   5367 ****        -4.7500  -4.7500  21.0000 Du        
   5368 ****        -4.7500  -4.5000  19.7500 Du        
   5369 ****        -4.7500  -4.5000  20.0000 Du        
   5370 ****        -4.7500  -4.5000  20.2500 Du        
   5371 ****        -4.7500  -4.5000  20.5000 Du        
   5372 ****        -4.7500  -4.5000  20.7500 Du        
   5373 ****        -4.7500  -4.5000  21.0000 Du        
   5374 ****        -4.7500  -4.5000  21.2500 Du        
   5375 ****        -4.7500  -4.2500  20.0000 Du        
   5376 ****        -4.7500  -4.2500  20.2500 Du        
   5377 ****        -4.7500  -4.2500  20.5000 Du        
   5378 ****        -4.7500  -4.2500  20.7500 Du        
   5379 ****        -4.7500  -4.2500  21.0000 Du        
   5380 ****        -4.7500  -4.2500  21.2500 Du        
   5381 ****        -4.7500  -4.0000  20.5000 Du        
   5382 ****        -4.7500  -4.0000  20.7500 Du        
   5383 ****        -4.7500  -4.0000  21.0000 Du        
   5384 ****        -4.7500  -4.0000  21.2500 Du        
   5385 ****        -4.7500  -4.0000  21.5000 Du        
   5386 ****        -4.7500  -3.7500  20.7500 Du        
   5387 ****        -4.7500  -3.7500  21.0000 Du        
   5388 ****        -4.7500  -3.7500  21.2500 Du        
   5389 ****        -4.5000  -6.0000  19.2500 Du        
   5390 ****        -4.5000  -6.0000  19.5000 Du        
   5391 ****        -4.5000  -6.0000  19.7500 Du        
   5392 ****        -4.5000  -6.0000  20.0000 Du        
   5393 ****        -4.5000  -5.7500  19.0000 Du        
   5394 ****        -4.5000  -5.7500  19.2500 Du        
   5395 ****        -4.5000  -5.7500  19.5000 Du        
   5396 ****        -4.5000  -5.7500  19.7500 Du        
   5397 ****        -4.5000  -5.7500  20.0000 Du        
   5398 ****        -4.5000  -5.7500  20.2500 Du        
   5399 ****        -4.5000  -5.5000  19.0000 Du        
   5400 ****        -4.5000  -5.5000  19.2500 Du        
   5401 ****        -4.5000  -5.5000  19.5000 Du        
   5402 ****        -4.5000  -5.5000  19.7500 Du        
   5403 ****        -4.5000  -5.5000  20.0000 Du        
   5404 ****        -4.5000  -5.5000  20.2500 Du        
   5405 ****        -4.5000  -5.5000  20.5000 Du        
   5406 ****        -4.5000  -5.2500  19.0000 Du        
   5407 ****        -4.5000  -5.2500  19.2500 Du        
   5408 ****        -4.5000  -5.2500  19.5000 Du        
   5409 ****        -4.5000  -5.2500  19.7500 Du        
   5410 ****        -4.5000  -5.2500  20.0000 Du        
   5411 ****        -4.5000  -5.2500  20.2500 Du        
   5412 ****        -4.5000  -5.2500  20.5000 Du        
   5413 ****        -4.5000  -5.2500  20.7500 Du        
   5414 ****        -4.5000  -5.0000  19.2500 Du        
   5415 ****        -4.5000  -5.0000  19.5000 Du        
   5416 ****        -4.5000  -5.0000  19.7500 Du        
   5417 ****        -4.5000  -5.0000  20.0000 Du        
   5418 ****        -4.5000  -5.0000  20.2500 Du        
   5419 ****        -4.5000  -5.0000  20.5000 Du        
   5420 ****        -4.5000  -5.0000  20.7500 Du        
   5421 ****        -4.5000  -4.7500  19.2500 Du        
   5422 ****        -4.5000  -4.7500  19.5000 Du        
   5423 ****        -4.5000  -4.7500  19.7500 Du        
   5424 ****        -4.5000  -4.7500  20.0000 Du        
   5425 ****        -4.5000  -4.7500  20.2500 Du        
   5426 ****        -4.5000  -4.7500  20.5000 Du        
   5427 ****        -4.5000  -4.7500  20.7500 Du        
   5428 ****        -4.5000  -4.7500  21.0000 Du        
   5429 ****        -4.5000  -4.5000  19.7500 Du        
   5430 ****        -4.5000  -4.5000  20.0000 Du        
   5431 ****        -4.5000  -4.5000  20.2500 Du        
   5432 ****        -4.5000  -4.5000  20.5000 Du        
   5433 ****        -4.5000  -4.5000  20.7500 Du        
   5434 ****        -4.5000  -4.5000  21.0000 Du        
   5435 ****        -4.5000  -4.2500  20.0000 Du        
   5436 ****        -4.5000  -4.2500  20.2500 Du        
   5437 ****        -4.5000  -4.2500  20.5000 Du        
   5438 ****        -4.5000  -4.2500  20.7500 Du        
   5439 ****        -4.5000  -4.2500  21.0000 Du        
   5440 ****        -4.5000  -4.2500  21.2500 Du        
   5441 ****        -4.5000  -4.0000  20.2500 Du        
   5442 ****        -4.5000  -4.0000  20.5000 Du        
   5443 ****        -4.5000  -4.0000  20.7500 Du        
   5444 ****        -4.5000  -4.0000  21.0000 Du        
   5445 ****        -4.5000  -4.0000  21.2500 Du        
   5446 ****        -4.5000  -3.7500  20.7500 Du        
   5447 ****        -4.5000  -3.7500  21.0000 Du        
   5448 ****        -4.2500  -6.0000  19.5000 Du        
   5449 ****        -4.2500  -6.0000  19.7500 Du        
   5450 ****        -4.2500  -6.0000  20.0000 Du        
   5451 ****        -4.2500  -5.7500  19.2500 Du        
   5452 ****        -4.2500  -5.7500  19.5000 Du        
   5453 ****        -4.2500  -5.7500  19.7500 Du        
   5454 ****        -4.2500  -5.7500  20.0000 Du        
   5455 ****        -4.2500  -5.7500  20.2500 Du        
   5456 ****        -4.2500  -5.5000  19.2500 Du        
   5457 ****        -4.2500  -5.5000  19.5000 Du        
   5458 ****        -4.2500  -5.5000  19.7500 Du        
   5459 ****        -4.2500  -5.5000  20.0000 Du        
   5460 ****        -4.2500  -5.5000  20.2500 Du        
   5461 ****        -4.2500  -5.5000  20.5000 Du        
   5462 ****        -4.2500  -5.2500  19.2500 Du        
   5463 ****        -4.2500  -5.2500  19.5000 Du        
   5464 ****        -4.2500  -5.2500  19.7500 Du        
   5465 ****        -4.2500  -5.2500  20.0000 Du        
   5466 ****        -4.2500  -5.2500  20.2500 Du        
   5467 ****        -4.2500  -5.2500  20.5000 Du        
   5468 ****        -4.2500  -5.2500  20.7500 Du        
   5469 ****        -4.2500  -5.0000  19.5000 Du        
   5470 ****        -4.2500  -5.0000  19.7500 Du        
   5471 ****        -4.2500  -5.0000  20.0000 Du        
   5472 ****        -4.2500  -5.0000  20.2500 Du        
   5473 ****        -4.2500  -5.0000  20.5000 Du        
   5474 ****        -4.2500  -5.0000  20.7500 Du        
   5475 ****        -4.2500  -4.7500  19.5000 Du        
   5476 ****        -4.2500  -4.7500  19.7500 Du        
   5477 ****        -4.2500  -4.7500  20.0000 Du        
   5478 ****        -4.2500  -4.7500  20.2500 Du        
   5479 ****        -4.2500  -4.7500  20.5000 Du        
   5480 ****        -4.2500  -4.7500  20.7500 Du        
   5481 ****        -4.2500  -4.7500  21.0000 Du        
   5482 ****        -4.2500  -4.5000  19.7500 Du        
   5483 ****        -4.2500  -4.5000  20.0000 Du        
   5484 ****        -4.2500  -4.5000  20.2500 Du        
   5485 ****        -4.2500  -4.5000  20.5000 Du        
   5486 ****        -4.2500  -4.5000  20.7500 Du        
   5487 ****        -4.2500  -4.5000  21.0000 Du        
   5488 ****        -4.2500  -4.2500  20.0000 Du        
   5489 ****        -4.2500  -4.2500  20.2500 Du        
   5490 ****        -4.2500  -4.2500  20.5000 Du        
   5491 ****        -4.2500  -4.2500  20.7500 Du        
   5492 ****        -4.2500  -4.2500  21.0000 Du        
   5493 ****        -4.2500  -4.0000  20.2500 Du        
   5494 ****        -4.2500  -4.0000  20.5000 Du        
   5495 ****        -4.2500  -4.0000  20.7500 Du        
   5496 ****        -4.2500  -4.0000  21.0000 Du        
   5497 ****        -4.0000  -6.0000  19.7500 Du        
   5498 ****        -4.0000  -6.0000  20.0000 Du        
   5499 ****        -4.0000  -5.7500  19.7500 Du        
   5500 ****        -4.0000  -5.7500  20.0000 Du        
   5501 ****        -4.0000  -5.7500  20.2500 Du        
   5502 ****        -4.0000  -5.5000  19.7500 Du        
   5503 ****        -4.0000  -5.5000  20.0000 Du        
   5504 ****        -4.0000  -5.5000  20.2500 Du        
   5505 ****        -4.0000  -5.5000  20.5000 Du        
   5506 ****        -4.0000  -5.2500  19.7500 Du        
   5507 ****        -4.0000  -5.2500  20.0000 Du        
   5508 ****        -4.0000  -5.2500  20.2500 Du        
   5509 ****        -4.0000  -5.2500  20.5000 Du        
   5510 ****        -4.0000  -5.2500  20.7500 Du        
   5511 ****        -4.0000  -5.0000  19.7500 Du        
   5512 ****        -4.0000  -5.0000  20.0000 Du        
   5513 ****        -4.0000  -5.0000  20.2500 Du        
   5514 ****        -4.0000  -5.0000  20.5000 Du        
   5515 ****        -4.0000  -5.0000  20.7500 Du        
   5516 ****        -4.0000  -4.7500  20.0000 Du        
   5517 ****        -4.0000  -4.7500  20.2500 Du        
   5518 ****        -4.0000  -4.7500  20.5000 Du        
   5519 ****        -4.0000  -4.7500  20.7500 Du        
   5520 ****        -4.0000  -4.5000  20.0000 Du        
   5521 ****        -4.0000  -4.5000  20.2500 Du        
   5522 ****        -4.0000  -4.5000  20.5000 Du        
   5523 ****        -4.0000  -4.5000  20.7500 Du        
   5524 ****        -4.0000  -4.2500  20.2500 Du        
   5525 ****        -4.0000  -4.2500  20.5000 Du        
   5526 ****        -4.0000  -4.2500  20.7500 Du        
   5527 ****        -4.0000  -4.2500  21.0000 Du        
   5528 ****        -3.7500  -5.7500  20.0000 Du        
   5529 ****        -3.7500  -5.7500  20.2500 Du        
   5530 ****        -3.7500  -5.5000  20.0000 Du        
   5531 ****        -3.7500  -5.5000  20.2500 Du        
   5532 ****        -3.7500  -5.5000  20.5000 Du        
   5533 ****        -3.7500  -5.2500  20.0000 Du        
   5534 ****        -3.7500  -5.2500  20.2500 Du        
   5535 ****        -3.7500  -5.2500  20.5000 Du        
   5536 ****        -3.7500  -5.0000  20.2500 Du        
   5537 ****        -3.7500  -5.0000  20.5000 Du        
   5538 ****        -3.7500  -4.7500  20.2500 Du        
   5539 ****        -3.7500  -4.7500  20.5000 Du        
   5540 ****        -3.7500  -4.7500  20.7500 Du        
   5541 ****        -3.7500  -4.5000  20.5000 Du        
