#       Name:                CT1002167954
#       Creating user name   hitesit
#       Creation time:       Sun Apr 16 22:51:03 2023


#       File generated by GOLD software.
#

@<TRIPOS>MOLECULE
CT1002167954|ligand_prepared|mol2|1|dock3
    29    30     1
SMALL
NO_CHARGES


@<TRIPOS>ATOM
      1 C1          -9.7822  -6.9475  17.6346 C.3            1 RES1               0.0000
      2 C2          -9.4796  -8.2067  18.4724 C.ar           1 RES1               0.0000
      3 C3         -11.2891  -6.7252  17.7241 C.2            1 RES1               0.0000
      4 C4          -8.9502  -5.8223  18.2400 C.2            1 RES1               0.0000
      5 C5          -9.3930  -7.0806  16.1438 C.3            1 RES1               0.0000
      6 C6          -9.3630  -9.4522  17.8628 C.ar           1 RES1               0.0000
      7 C7          -9.3122  -8.1381  19.8529 C.ar           1 RES1               0.0000
      8 N8         -11.7309  -5.6977  18.5044 N.am           1 RES1               0.0000
      9 O9         -12.0793  -7.4647  17.1505 O.2            1 RES1               0.0000
     10 N10         -9.6141  -4.7809  18.8336 N.am           1 RES1               0.0000
     11 O11         -7.7256  -5.8363  18.2229 O.2            1 RES1               0.0000
     12 C12         -9.4450  -5.7685  15.3771 C.3            1 RES1               0.0000
     13 C13         -9.0861 -10.5878  18.6058 C.ar           1 RES1               0.0000
     14 C14         -9.0356  -9.2750  20.5942 C.ar           1 RES1               0.0000
     15 C15        -10.9660  -4.6826  19.0204 C.2            1 RES1               0.0000
     16 C16         -8.9218 -10.4999  19.9718 C.ar           1 RES1               0.0000
     17 O17        -11.4847  -3.7405  19.6124 O.2            1 RES1               0.0000
     18 H18         -8.3762  -7.4872  16.0793 H              1 RES1               0.0000
     19 H19        -10.0716  -7.7968  15.6643 H              1 RES1               0.0000
     20 H20         -9.4915  -9.5413  16.7892 H              1 RES1               0.0000
     21 H21         -9.3984  -7.1853  20.3640 H              1 RES1               0.0000
     22 H22        -12.7216  -5.6827  18.7248 H              1 RES1               0.0000
     23 H23         -9.0480  -4.0071  19.1670 H              1 RES1               0.0000
     24 H24         -9.1632  -5.9181  14.3370 H              1 RES1               0.0000
     25 H25        -10.4484  -5.3483  15.3992 H              1 RES1               0.0000
     26 H26         -8.7631  -5.0405  15.8117 H              1 RES1               0.0000
     27 H27         -8.9989 -11.5497  18.1114 H              1 RES1               0.0000
     28 H28         -8.9077  -9.2013  21.6691 H              1 RES1               0.0000
     29 H29         -8.7046 -11.3896  20.5537 H              1 RES1               0.0000
@<TRIPOS>BOND
    1    1    2 1     
    2    1    3 1     
    3    1    4 1     
    4    1    5 1     
    5    2    6 ar    
    6    2    7 ar    
    7    3    8 1     
    8    3    9 2     
    9    4   10 1     
   10    4   11 2     
   11    5   12 1     
   12    5   18 1     
   13    5   19 1     
   14    6   13 ar    
   15    6   20 1     
   16    7   14 ar    
   17    7   21 1     
   18    8   15 1     
   19    8   22 1     
   20   10   15 1     
   21   10   23 1     
   22   12   24 1     
   23   12   25 1     
   24   12   26 1     
   25   13   16 ar    
   26   13   27 1     
   27   14   16 ar    
   28   14   28 1     
   29   15   17 2     
   30   16   29 1     
@<TRIPOS>SUBSTRUCTURE
      1 RES1           1
@<TRIPOS>SET
DONOR_HYDROGENS      STATIC     ATOMS    <user>   **** ""
2 22 23
ATOM$RED        STATIC     ATOMS    COLORGROUP SYSTEM
2 22 23
@<TRIPOS>COMMENT
> <Gold.Version>
2022.3.0

> <Gold.Id.Protein>
unknown|3ovv_clean|pdb

> <Gold.Protein.RotatedTorsions>
[  602  597  595  592 ] final  170.95 input   59.96 | X-H torsion
[  622  617  616  613 ] final   23.66 input   59.98 | X-H torsion
[ 2635 2624 2623 2622 ] final   45.68 input   60.00 | X-H torsion
[ 3186 3179 3177 3174 ] final  110.12 input   59.97 | X-H torsion
[ 5212 5203 5202 5200 ] final   98.31 input   59.98 | X-H torsion

> <Gold.Protein.ActiveResidues>
 GLY50   THR51   GLY52   SER53   PHE54   GLY55   ARG56   VAL57   LYS72   GLU127 
 PHE129  ASP166  LYS168  GLU170  ASN171  THR183  ASP184  THR201  TYR330 

> <Gold.Protein.RotatedAtoms>
   -4.8222   -1.3962   13.3323 H   0  0  0  0  0  0  0  0  0  0  0  0  # atno 602  bound_to 597 
   -7.3054    1.1087   20.5510 H   0  0  0  0  0  0  0  0  0  0  0  0  # atno 622  bound_to 617 
  -15.3726   -0.6316   19.6537 H   0  0  0  0  0  0  0  0  0  0  0  0  # atno 2635 bound_to 2624
  -13.9161   -1.4162   19.5618 H   0  0  0  0  0  0  0  0  0  0  0  0  # atno 2636 bound_to 2624
  -14.6073   -0.7882   18.1925 H   0  0  0  0  0  0  0  0  0  0  0  0  # atno 2637 bound_to 2624
  -16.7758   -0.6434   20.9838 H   0  0  0  0  0  0  0  0  0  0  0  0  # atno 3186 bound_to 3179
   -8.5356   -5.0367   11.6339 H   0  0  0  0  0  0  0  0  0  0  0  0  # atno 5212 bound_to 5203
   -5.9829   -1.9220   14.3443 LP  0  0  0  0  0  0  0  0  0  0  0  0  # atno 5529 bound_to 597 
   -5.5914   -2.7960   13.0217 LP  0  0  0  0  0  0  0  0  0  0  0  0  # atno 5530 bound_to 597 
   -7.2046    2.7206   20.7498 LP  0  0  0  0  0  0  0  0  0  0  0  0  # atno 5533 bound_to 617 
   -7.6077    1.7633   22.0099 LP  0  0  0  0  0  0  0  0  0  0  0  0  # atno 5534 bound_to 617 
  -15.9724    0.7190   21.3677 LP  0  0  0  0  0  0  0  0  0  0  0  0  # atno 5539 bound_to 3179
  -15.9825    0.1808   19.8260 LP  0  0  0  0  0  0  0  0  0  0  0  0  # atno 5540 bound_to 3179
   -8.9118   -5.6568   10.1772 LP  0  0  0  0  0  0  0  0  0  0  0  0  # atno 5541 bound_to 5203
   -8.8530   -4.0386   10.3885 LP  0  0  0  0  0  0  0  0  0  0  0  0  # atno 5542 bound_to 5203

> <Gold.Score>
     Fitness  S(hb_ext) S(vdw_ext)  S(hb_int)    S(int)      intcor
     41.08       1.11      29.46       0.00      -0.53      -0.79

> <Gold.Goldscore.Fitness>
41.0816

> <Gold.Goldscore.Internal.Vdw>
-0.7708

> <Gold.Goldscore.Internal.Torsion>
-0.5466

> <Gold.Goldscore.External.Vdw>
29.4601

> <Gold.Goldscore.Internal.HBond>
0.0000

> <Gold.Goldscore.External.HBond>
1.1063

> <Gold.Goldscore.Internal.Correction>
-0.7850

> <Gold.Goldscore.Hbonds>
donor molecule, donor type, donor heavy atom, donor atom, acceptor molecule, acceptor atom, score
      L1  H     8    22       P1  2674  0.55

> <Gold.Goldscore.Internal.Vdw.Weighted>
-0.7708

> <Gold.Goldscore.Internal.Torsion.Weighted>
-0.5466

> <Gold.Goldscore.External.Vdw.Weighted>
40.5077

> <Gold.Goldscore.Internal.HBond.Weighted>
0.0000

> <Gold.Goldscore.External.HBond.Weighted>
1.1063

> <Gold.Goldscore.Internal.Correction.Weighted>
-0.7850

> <Gold.Rescore>
     Score     S(PLP)   S(hbond)     S(cho)   S(metal)  DE(clash)   DE(tors)     intcor
     38.84     -37.48       1.00       0.00       0.00       0.00       0.82       ----

> <Gold.PLP.Fitness>
38.8438

> <Gold.PLP.PLP>
-37.4830

> <Gold.PLP.part.hbond>
-1.4767

> <Gold.PLP.part.metal>
0.0000

> <Gold.PLP.part.buried>
-2.9931

> <Gold.PLP.part.nonpolar>
-36.0936

> <Gold.PLP.part.repulsive>
2.6538

> <Gold.PLP.ligand.clash>
0.0000

> <Gold.PLP.ligand.torsion>
0.8196

> <Gold.PLP.Chemscore.Hbond>
1.0000

> <Gold.PLP.Chemscore.CHOScore>
0.0000

> <Gold.PLP.Chemscore.Metal>
0.0000

> <Gold.Chemscore.Hbonds>
donor molecule, donor type, donor heavy atom, donor atom, acceptor molecule, acceptor atom, score
      L1  H     8    22       P1  2674  0.62

> <Gold.PLP.Chemscore.Internal.Correction>
   9.000000E+99

