#       Name:                CT1002167954
#       Creating user name   hitesit
#       Creation time:       Sun Apr 16 22:51:08 2023


#       File generated by GOLD software.
#

@<TRIPOS>MOLECULE
CT1002167954|ligand_prepared|mol2|1|dock8
    29    30     1
SMALL
NO_CHARGES


@<TRIPOS>ATOM
      1 C1          -9.3669  -7.8130  17.0710 C.3            1 RES1               0.0000
      2 C2          -9.0523  -9.0845  16.2566 C.ar           1 RES1               0.0000
      3 C3         -10.3283  -8.2394  18.1765 C.2            1 RES1               0.0000
      4 C4          -8.0280  -7.2894  17.5786 C.2            1 RES1               0.0000
      5 C5         -10.0362  -6.6909  16.2438 C.3            1 RES1               0.0000
      6 C6          -8.9691 -10.3245  16.8827 C.ar           1 RES1               0.0000
      7 C7          -8.8459  -9.0336  14.8806 C.ar           1 RES1               0.0000
      8 N8          -9.8354  -8.3216  19.4455 N.am           1 RES1               0.0000
      9 O9         -11.4911  -8.5371  17.9325 O.2            1 RES1               0.0000
     10 N10         -7.8045  -7.3018  18.9305 N.am           1 RES1               0.0000
     11 O11         -7.1581  -6.8815  16.8189 O.2            1 RES1               0.0000
     12 C12        -10.5250  -5.5198  17.0816 C.3            1 RES1               0.0000
     13 C13         -8.6924 -11.4727  16.1591 C.ar           1 RES1               0.0000
     14 C14         -8.5691 -10.1830  14.1589 C.ar           1 RES1               0.0000
     15 C15         -8.6354  -7.8227  19.8846 C.2            1 RES1               0.0000
     16 C16         -8.4927 -11.4028  14.7968 C.ar           1 RES1               0.0000
     17 O17         -8.3407  -7.8467  21.0761 O.2            1 RES1               0.0000
     18 H18         -9.3159  -6.3197  15.5043 H              1 RES1               0.0000
     19 H19        -10.8885  -7.1147  15.6983 H              1 RES1               0.0000
     20 H20         -9.1209 -10.3987  17.9544 H              1 RES1               0.0000
     21 H21         -8.9000  -8.0848  14.3578 H              1 RES1               0.0000
     22 H22        -10.4123  -8.7982  20.1313 H              1 RES1               0.0000
     23 H23         -6.9385  -6.8840  19.2557 H              1 RES1               0.0000
     24 H24        -10.9860  -4.7613  16.4525 H              1 RES1               0.0000
     25 H25        -11.2620  -5.8486  17.8113 H              1 RES1               0.0000
     26 H26         -9.6988  -5.0584  17.6185 H              1 RES1               0.0000
     27 H27         -8.6321 -12.4300  16.6661 H              1 RES1               0.0000
     28 H28         -8.4120 -10.1232  13.0869 H              1 RES1               0.0000
     29 H29         -8.2764 -12.3024  14.2301 H              1 RES1               0.0000
@<TRIPOS>BOND
    1    1    2 1     
    2    1    3 1     
    3    1    4 1     
    4    1    5 1     
    5    2    6 ar    
    6    2    7 ar    
    7    3    8 1     
    8    3    9 2     
    9    4   10 1     
   10    4   11 2     
   11    5   12 1     
   12    5   18 1     
   13    5   19 1     
   14    6   13 ar    
   15    6   20 1     
   16    7   14 ar    
   17    7   21 1     
   18    8   15 1     
   19    8   22 1     
   20   10   15 1     
   21   10   23 1     
   22   12   24 1     
   23   12   25 1     
   24   12   26 1     
   25   13   16 ar    
   26   13   27 1     
   27   14   16 ar    
   28   14   28 1     
   29   15   17 2     
   30   16   29 1     
@<TRIPOS>SUBSTRUCTURE
      1 RES1           1
@<TRIPOS>SET
DONOR_HYDROGENS      STATIC     ATOMS    <user>   **** ""
2 22 23
ATOM$RED        STATIC     ATOMS    COLORGROUP SYSTEM
2 22 23
@<TRIPOS>COMMENT
> <Gold.Version>
2022.3.0

> <Gold.Id.Protein>
unknown|3ovv_clean|pdb

> <Gold.Protein.RotatedTorsions>
[  602  597  595  592 ] final  139.26 input   59.96 | X-H torsion
[  622  617  616  613 ] final -144.56 input   59.98 | X-H torsion
[ 2635 2624 2623 2622 ] final  -63.56 input   60.00 | X-H torsion
[ 3186 3179 3177 3174 ] final   24.41 input   59.97 | X-H torsion
[ 5212 5203 5202 5200 ] final  -30.68 input   59.98 | X-H torsion

> <Gold.Protein.ActiveResidues>
 GLY50   THR51   GLY52   SER53   PHE54   GLY55   ARG56   VAL57   LYS72   GLU127 
 PHE129  ASP166  LYS168  GLU170  ASN171  THR183  ASP184  THR201  TYR330 

> <Gold.Protein.RotatedAtoms>
   -5.0356   -1.2286   13.7654 H   0  0  0  0  0  0  0  0  0  0  0  0  # atno 602  bound_to 597 
   -7.3878    2.7120   21.4953 H   0  0  0  0  0  0  0  0  0  0  0  0  # atno 622  bound_to 617 
  -14.7643   -0.7066   18.2192 H   0  0  0  0  0  0  0  0  0  0  0  0  # atno 2635 bound_to 2624
  -15.2853   -0.7044   19.7921 H   0  0  0  0  0  0  0  0  0  0  0  0  # atno 2636 bound_to 2624
  -13.8461   -1.4251   19.3965 H   0  0  0  0  0  0  0  0  0  0  0  0  # atno 2637 bound_to 2624
  -16.2798    0.3379   21.6271 H   0  0  0  0  0  0  0  0  0  0  0  0  # atno 3186 bound_to 3179
   -8.9356   -5.5529   10.0753 H   0  0  0  0  0  0  0  0  0  0  0  0  # atno 5212 bound_to 5203
   -6.1398   -2.3653   14.1348 LP  0  0  0  0  0  0  0  0  0  0  0  0  # atno 5529 bound_to 597 
   -5.2196   -2.5216   12.7949 LP  0  0  0  0  0  0  0  0  0  0  0  0  # atno 5530 bound_to 597 
   -7.5736    1.1002   21.6194 LP  0  0  0  0  0  0  0  0  0  0  0  0  # atno 5533 bound_to 617 
   -7.1557    1.7691   20.1895 LP  0  0  0  0  0  0  0  0  0  0  0  0  # atno 5534 bound_to 617 
  -15.7661    0.6089   20.1067 LP  0  0  0  0  0  0  0  0  0  0  0  0  # atno 5539 bound_to 3179
  -16.6881   -0.6972   20.4393 LP  0  0  0  0  0  0  0  0  0  0  0  0  # atno 5540 bound_to 3179
   -8.8179   -3.9934   10.5250 LP  0  0  0  0  0  0  0  0  0  0  0  0  # atno 5541 bound_to 5203
   -8.5440   -5.1821   11.6106 LP  0  0  0  0  0  0  0  0  0  0  0  0  # atno 5542 bound_to 5203

> <Gold.Score>
     Fitness  S(hb_ext) S(vdw_ext)  S(hb_int)    S(int)      intcor
     44.15       3.06      30.25       0.00      -0.50      -0.76

> <Gold.Goldscore.Fitness>
44.1520

> <Gold.Goldscore.Internal.Vdw>
-0.7855

> <Gold.Goldscore.Internal.Torsion>
-0.4773

> <Gold.Goldscore.External.Vdw>
30.2517

> <Gold.Goldscore.Internal.HBond>
0.0000

> <Gold.Goldscore.External.HBond>
3.0603

> <Gold.Goldscore.Internal.Correction>
-0.7585

> <Gold.Goldscore.Hbonds>
donor molecule, donor type, donor heavy atom, donor atom, acceptor molecule, acceptor atom, score
      P1  H   932   945       L1    17  0.51

> <Gold.Goldscore.Internal.Vdw.Weighted>
-0.7855

> <Gold.Goldscore.Internal.Torsion.Weighted>
-0.4773

> <Gold.Goldscore.External.Vdw.Weighted>
41.5960

> <Gold.Goldscore.Internal.HBond.Weighted>
0.0000

> <Gold.Goldscore.External.HBond.Weighted>
3.0603

> <Gold.Goldscore.Internal.Correction.Weighted>
-0.7585

> <Gold.Rescore>
     Score     S(PLP)   S(hbond)     S(cho)   S(metal)  DE(clash)   DE(tors)     intcor
     42.83     -42.34       0.83       0.00       0.00       0.00       1.00       ----

> <Gold.PLP.Fitness>
42.8346

> <Gold.PLP.PLP>
-42.3358

> <Gold.PLP.part.hbond>
-2.6838

> <Gold.PLP.part.metal>
0.0000

> <Gold.PLP.part.buried>
0.6202

> <Gold.PLP.part.nonpolar>
-43.0348

> <Gold.PLP.part.repulsive>
1.4933

> <Gold.PLP.ligand.clash>
0.0000

> <Gold.PLP.ligand.torsion>
0.9986

> <Gold.PLP.Chemscore.Hbond>
0.8320

> <Gold.PLP.Chemscore.CHOScore>
0.0000

> <Gold.PLP.Chemscore.Metal>
0.0000

> <Gold.Chemscore.Hbonds>
donor molecule, donor type, donor heavy atom, donor atom, acceptor molecule, acceptor atom, score
      P1  H   932   945       L1    17  1.00

> <Gold.PLP.Chemscore.Internal.Correction>
   9.000000E+99

