#       Name:                CT1002167954
#       Creating user name   hitesit
#       Creation time:       Sun Apr 16 22:51:01 2023


#       File generated by GOLD software.
#

@<TRIPOS>MOLECULE
CT1002167954|ligand_prepared|mol2|1|dock1
    29    30     1
SMALL
NO_CHARGES


@<TRIPOS>ATOM
      1 C1          -9.7386  -7.3712  17.1682 C.3            1 RES1               0.0000
      2 C2          -9.4522  -8.6412  17.9952 C.ar           1 RES1               0.0000
      3 C3         -11.2271  -7.0790  17.3334 C.2            1 RES1               0.0000
      4 C4          -8.8257  -6.2845  17.7253 C.2            1 RES1               0.0000
      5 C5          -9.4327  -7.5254  15.6602 C.3            1 RES1               0.0000
      6 C6          -9.3942  -9.8886  17.3810 C.ar           1 RES1               0.0000
      7 C7          -9.2417  -8.5810  19.3702 C.ar           1 RES1               0.0000
      8 N8         -11.5805  -6.0304  18.1305 N.am           1 RES1               0.0000
      9 O9         -12.0789  -7.7822  16.8040 O.2            1 RES1               0.0000
     10 N10         -9.4095  -5.2121  18.3473 N.am           1 RES1               0.0000
     11 O11         -7.6055  -6.3554  17.6460 O.2            1 RES1               0.0000
     12 C12         -9.4130  -6.2082  14.9007 C.3            1 RES1               0.0000
     13 C13         -9.1322 -11.0341  18.1142 C.ar           1 RES1               0.0000
     14 C14         -8.9801  -9.7278  20.1016 C.ar           1 RES1               0.0000
     15 C15        -10.7441  -5.0508  18.6022 C.2            1 RES1               0.0000
     16 C16         -8.9246 -10.9544  19.4748 C.ar           1 RES1               0.0000
     17 O17        -11.1878  -4.0843  19.2156 O.2            1 RES1               0.0000
     18 H18         -8.4569  -8.0135  15.5459 H              1 RES1               0.0000
     19 H19        -10.1897  -8.1804  15.2115 H              1 RES1               0.0000
     20 H20         -9.5574  -9.9713  16.3116 H              1 RES1               0.0000
     21 H21         -9.2817  -7.6269  19.8847 H              1 RES1               0.0000
     22 H22        -12.5569  -5.9689  18.4009 H              1 RES1               0.0000
     23 H23         -8.7920  -4.4647  18.6479 H              1 RES1               0.0000
     24 H24         -9.1939  -6.3733  13.8479 H              1 RES1               0.0000
     25 H25        -10.3763  -5.7075  14.9719 H              1 RES1               0.0000
     26 H26         -8.6538  -5.5415  15.3044 H              1 RES1               0.0000
     27 H27         -9.0910 -11.9972  17.6163 H              1 RES1               0.0000
     28 H28         -8.8180  -9.6605  21.1723 H              1 RES1               0.0000
     29 H29         -8.7191 -11.8519  20.0489 H              1 RES1               0.0000
@<TRIPOS>BOND
    1    1    2 1     
    2    1    3 1     
    3    1    4 1     
    4    1    5 1     
    5    2    6 ar    
    6    2    7 ar    
    7    3    8 1     
    8    3    9 2     
    9    4   10 1     
   10    4   11 2     
   11    5   12 1     
   12    5   18 1     
   13    5   19 1     
   14    6   13 ar    
   15    6   20 1     
   16    7   14 ar    
   17    7   21 1     
   18    8   15 1     
   19    8   22 1     
   20   10   15 1     
   21   10   23 1     
   22   12   24 1     
   23   12   25 1     
   24   12   26 1     
   25   13   16 ar    
   26   13   27 1     
   27   14   16 ar    
   28   14   28 1     
   29   15   17 2     
   30   16   29 1     
@<TRIPOS>SUBSTRUCTURE
      1 RES1           1
@<TRIPOS>SET
DONOR_HYDROGENS      STATIC     ATOMS    <user>   **** ""
2 22 23
ATOM$RED        STATIC     ATOMS    COLORGROUP SYSTEM
2 22 23
@<TRIPOS>COMMENT
> <Gold.Version>
2022.3.0

> <Gold.Id.Protein>
unknown|3ovv_clean|pdb

> <Gold.Protein.RotatedTorsions>
[  602  597  595  592 ] final  139.89 input   59.96 | X-H torsion
[  622  617  616  613 ] final   81.80 input   59.98 | X-H torsion
[ 2635 2624 2623 2622 ] final  -96.19 input   60.00 | X-H torsion
[ 3186 3179 3177 3174 ] final   69.23 input   59.97 | X-H torsion
[ 5212 5203 5202 5200 ] final   85.35 input   59.98 | X-H torsion

> <Gold.Protein.ActiveResidues>
 GLY50   THR51   GLY52   SER53   PHE54   GLY55   ARG56   VAL57   LYS72   GLU127 
 PHE129  ASP166  LYS168  GLU170  ASN171  THR183  ASP184  THR201  TYR330 

> <Gold.Protein.RotatedAtoms>
   -5.0299   -1.2296   13.7571 H   0  0  0  0  0  0  0  0  0  0  0  0  # atno 602  bound_to 597 
   -7.5326    0.9983   21.4250 H   0  0  0  0  0  0  0  0  0  0  0  0  # atno 622  bound_to 617 
  -14.2956   -0.9684   18.2408 H   0  0  0  0  0  0  0  0  0  0  0  0  # atno 2635 bound_to 2624
  -15.4679   -0.5188   19.3220 H   0  0  0  0  0  0  0  0  0  0  0  0  # atno 2636 bound_to 2624
  -14.1322   -1.3490   19.8451 H   0  0  0  0  0  0  0  0  0  0  0  0  # atno 2637 bound_to 2624
  -16.6427   -0.2638   21.4996 H   0  0  0  0  0  0  0  0  0  0  0  0  # atno 3186 bound_to 3179
   -8.5490   -5.2416   11.5838 H   0  0  0  0  0  0  0  0  0  0  0  0  # atno 5212 bound_to 5203
   -6.1386   -2.3571   14.1409 LP  0  0  0  0  0  0  0  0  0  0  0  0  # atno 5529 bound_to 597 
   -5.2265   -2.5288   12.7973 LP  0  0  0  0  0  0  0  0  0  0  0  0  # atno 5530 bound_to 597 
   -7.1369    1.9920   20.1986 LP  0  0  0  0  0  0  0  0  0  0  0  0  # atno 5533 bound_to 617 
   -7.4466    2.6031   21.6809 LP  0  0  0  0  0  0  0  0  0  0  0  0  # atno 5534 bound_to 617 
  -15.7383    0.8776   20.7730 LP  0  0  0  0  0  0  0  0  0  0  0  0  # atno 5539 bound_to 3179
  -16.3506   -0.3601   19.9014 LP  0  0  0  0  0  0  0  0  0  0  0  0  # atno 5540 bound_to 3179
   -8.9492   -5.5084   10.0293 LP  0  0  0  0  0  0  0  0  0  0  0  0  # atno 5541 bound_to 5203
   -8.8021   -3.9807   10.5868 LP  0  0  0  0  0  0  0  0  0  0  0  0  # atno 5542 bound_to 5203

> <Gold.Score>
     Fitness  S(hb_ext) S(vdw_ext)  S(hb_int)    S(int)      intcor
     43.61       1.25      31.19       0.00      -0.54      -0.79

> <Gold.Goldscore.Fitness>
43.6058

> <Gold.Goldscore.Internal.Vdw>
-0.7056

> <Gold.Goldscore.Internal.Torsion>
-0.6219

> <Gold.Goldscore.External.Vdw>
31.1948

> <Gold.Goldscore.Internal.HBond>
0.0000

> <Gold.Goldscore.External.HBond>
1.2511

> <Gold.Goldscore.Internal.Correction>
-0.7893

> <Gold.Goldscore.Hbonds>
donor molecule, donor type, donor heavy atom, donor atom, acceptor molecule, acceptor atom, score
      L1  H     8    22       P1  2674  0.63

> <Gold.Goldscore.Internal.Vdw.Weighted>
-0.7056

> <Gold.Goldscore.Internal.Torsion.Weighted>
-0.6219

> <Gold.Goldscore.External.Vdw.Weighted>
42.8929

> <Gold.Goldscore.Internal.HBond.Weighted>
0.0000

> <Gold.Goldscore.External.HBond.Weighted>
1.2511

> <Gold.Goldscore.Internal.Correction.Weighted>
-0.7893

> <Gold.Rescore>
     Score     S(PLP)   S(hbond)     S(cho)   S(metal)  DE(clash)   DE(tors)     intcor
     39.48     -37.41       1.00       0.00       0.00       0.00       0.46       ----

> <Gold.PLP.Fitness>
39.4818

> <Gold.PLP.PLP>
-37.4069

> <Gold.PLP.part.hbond>
-2.0000

> <Gold.PLP.part.metal>
0.0000

> <Gold.PLP.part.buried>
-2.9751

> <Gold.PLP.part.nonpolar>
-36.4781

> <Gold.PLP.part.repulsive>
3.0325

> <Gold.PLP.ligand.clash>
0.0000

> <Gold.PLP.ligand.torsion>
0.4625

> <Gold.PLP.Chemscore.Hbond>
1.0000

> <Gold.PLP.Chemscore.CHOScore>
0.0000

> <Gold.PLP.Chemscore.Metal>
0.0000

> <Gold.Chemscore.Hbonds>
donor molecule, donor type, donor heavy atom, donor atom, acceptor molecule, acceptor atom, score
      L1  H     8    22       P1  2674  1.00

> <Gold.PLP.Chemscore.Internal.Correction>
   9.000000E+99

