#       Name:                CT1002167954
#       Creating user name   hitesit
#       Creation time:       Sun Apr 16 22:51:07 2023


#       File generated by GOLD software.
#

@<TRIPOS>MOLECULE
CT1002167954|ligand_prepared|mol2|1|dock7
    29    30     1
SMALL
NO_CHARGES


@<TRIPOS>ATOM
      1 C1          -9.5298  -6.8721  17.1874 C.3            1 RES1               0.0000
      2 C2          -8.2843  -6.3039  17.8978 C.ar           1 RES1               0.0000
      3 C3         -10.5903  -7.0615  18.2681 C.2            1 RES1               0.0000
      4 C4          -9.9091  -5.8573  16.1146 C.2            1 RES1               0.0000
      5 C5          -9.2871  -8.2327  16.4935 C.3            1 RES1               0.0000
      6 C6          -7.0376  -6.3411  17.2803 C.ar           1 RES1               0.0000
      7 C7          -8.3665  -5.7381  19.1673 C.ar           1 RES1               0.0000
      8 N8         -11.6295  -6.1789  18.2951 N.am           1 RES1               0.0000
      9 O9         -10.4953  -7.9479  19.1081 O.2            1 RES1               0.0000
     10 N10        -11.1020  -5.1964  16.2490 N.am           1 RES1               0.0000
     11 O11         -9.1781  -5.6118  15.1629 O.2            1 RES1               0.0000
     12 C12        -10.5633  -8.9345  16.0567 C.3            1 RES1               0.0000
     13 C13         -5.9144  -5.8285  17.9079 C.ar           1 RES1               0.0000
     14 C14         -7.2419  -5.2262  19.7932 C.ar           1 RES1               0.0000
     15 C15        -11.9651  -5.2888  17.3067 C.2            1 RES1               0.0000
     16 C16         -6.0157  -5.2704  19.1644 C.ar           1 RES1               0.0000
     17 O17        -12.9926  -4.6212  17.3816 O.2            1 RES1               0.0000
     18 H18         -8.6534  -8.0717  15.6127 H              1 RES1               0.0000
     19 H19         -8.7419  -8.8886  17.1834 H              1 RES1               0.0000
     20 H20         -6.9380  -6.7787  16.2926 H              1 RES1               0.0000
     21 H21         -9.3205  -5.6935  19.6815 H              1 RES1               0.0000
     22 H22        -12.2109  -6.1807  19.1271 H              1 RES1               0.0000
     23 H23        -11.3716  -4.5784  15.4902 H              1 RES1               0.0000
     24 H24        -10.3363  -9.8837  15.5759 H              1 RES1               0.0000
     25 H25        -11.2064  -9.1329  16.9117 H              1 RES1               0.0000
     26 H26        -11.1185  -8.3209  15.3502 H              1 RES1               0.0000
     27 H27         -4.9515  -5.8670  17.4093 H              1 RES1               0.0000
     28 H28         -7.3262  -4.7885  20.7824 H              1 RES1               0.0000
     29 H29         -5.1357  -4.8686  19.6557 H              1 RES1               0.0000
@<TRIPOS>BOND
    1    1    2 1     
    2    1    3 1     
    3    1    4 1     
    4    1    5 1     
    5    2    6 ar    
    6    2    7 ar    
    7    3    8 1     
    8    3    9 2     
    9    4   10 1     
   10    4   11 2     
   11    5   12 1     
   12    5   18 1     
   13    5   19 1     
   14    6   13 ar    
   15    6   20 1     
   16    7   14 ar    
   17    7   21 1     
   18    8   15 1     
   19    8   22 1     
   20   10   15 1     
   21   10   23 1     
   22   12   24 1     
   23   12   25 1     
   24   12   26 1     
   25   13   16 ar    
   26   13   27 1     
   27   14   16 ar    
   28   14   28 1     
   29   15   17 2     
   30   16   29 1     
@<TRIPOS>SUBSTRUCTURE
      1 RES1           1
@<TRIPOS>SET
DONOR_HYDROGENS      STATIC     ATOMS    <user>   **** ""
2 22 23
ATOM$RED        STATIC     ATOMS    COLORGROUP SYSTEM
2 22 23
@<TRIPOS>COMMENT
> <Gold.Version>
2022.3.0

> <Gold.Id.Protein>
unknown|3ovv_clean|pdb

> <Gold.Protein.RotatedTorsions>
[  602  597  595  592 ] final  102.00 input   59.96 | X-H torsion
[  622  617  616  613 ] final   -1.47 input   59.98 | X-H torsion
[ 2635 2624 2623 2622 ] final -140.15 input   60.00 | X-H torsion
[ 3186 3179 3177 3174 ] final  104.16 input   59.97 | X-H torsion
[ 5212 5203 5202 5200 ] final  171.89 input   59.98 | X-H torsion

> <Gold.Protein.ActiveResidues>
 GLY50   THR51   GLY52   SER53   PHE54   GLY55   ARG56   VAL57   LYS72   GLU127 
 PHE129  ASP166  LYS168  GLU170  ASN171  THR183  ASP184  THR201  TYR330 

> <Gold.Protein.RotatedAtoms>
   -5.4423   -1.3394   14.1899 H   0  0  0  0  0  0  0  0  0  0  0  0  # atno 602  bound_to 597 
   -7.2135    1.4131   20.2965 H   0  0  0  0  0  0  0  0  0  0  0  0  # atno 622  bound_to 617 
  -13.8547   -1.2945   18.7014 H   0  0  0  0  0  0  0  0  0  0  0  0  # atno 2635 bound_to 2624
  -15.2989   -0.4858   18.6266 H   0  0  0  0  0  0  0  0  0  0  0  0  # atno 2636 bound_to 2624
  -14.7421   -1.0558   20.0800 H   0  0  0  0  0  0  0  0  0  0  0  0  # atno 2637 bound_to 2624
  -16.7723   -0.6075   21.0741 H   0  0  0  0  0  0  0  0  0  0  0  0  # atno 3186 bound_to 3179
   -8.6678   -4.0568   11.1054 H   0  0  0  0  0  0  0  0  0  0  0  0  # atno 5212 bound_to 5203
   -6.0668   -2.7525   13.6791 LP  0  0  0  0  0  0  0  0  0  0  0  0  # atno 5529 bound_to 597 
   -4.8830   -2.0227   12.8231 LP  0  0  0  0  0  0  0  0  0  0  0  0  # atno 5530 bound_to 597 
   -7.2942    2.8011   21.1420 LP  0  0  0  0  0  0  0  0  0  0  0  0  # atno 5533 bound_to 617 
   -7.6107    1.3762   21.8741 LP  0  0  0  0  0  0  0  0  0  0  0  0  # atno 5534 bound_to 617 
  -15.9262    0.7652   21.2948 LP  0  0  0  0  0  0  0  0  0  0  0  0  # atno 5539 bound_to 3179
  -16.0322    0.0983   19.8080 LP  0  0  0  0  0  0  0  0  0  0  0  0  # atno 5540 bound_to 3179
   -8.6323   -5.6752   11.2711 LP  0  0  0  0  0  0  0  0  0  0  0  0  # atno 5541 bound_to 5203
   -8.9994   -5.0073    9.8269 LP  0  0  0  0  0  0  0  0  0  0  0  0  # atno 5542 bound_to 5203

> <Gold.Score>
     Fitness  S(hb_ext) S(vdw_ext)  S(hb_int)    S(int)      intcor
     38.81       0.05      29.08       0.00      -1.23      -0.79

> <Gold.Goldscore.Fitness>
38.8079

> <Gold.Goldscore.Internal.Vdw>
-1.3934

> <Gold.Goldscore.Internal.Torsion>
-0.6171

> <Gold.Goldscore.External.Vdw>
29.0817

> <Gold.Goldscore.Internal.HBond>
0.0000

> <Gold.Goldscore.External.HBond>
0.0460

> <Gold.Goldscore.Internal.Correction>
-0.7850

> <Gold.Goldscore.Hbonds>
donor molecule, donor type, donor heavy atom, donor atom, acceptor molecule, acceptor atom, score
      L1  H     8    22       P1  2674  0.02

> <Gold.Goldscore.Internal.Vdw.Weighted>
-1.3934

> <Gold.Goldscore.Internal.Torsion.Weighted>
-0.6171

> <Gold.Goldscore.External.Vdw.Weighted>
39.9873

> <Gold.Goldscore.Internal.HBond.Weighted>
0.0000

> <Gold.Goldscore.External.HBond.Weighted>
0.0460

> <Gold.Goldscore.Internal.Correction.Weighted>
-0.7850

> <Gold.Rescore>
     Score     S(PLP)   S(hbond)     S(cho)   S(metal)  DE(clash)   DE(tors)     intcor
     33.81     -33.85       0.72       0.00       0.00       1.35       0.42       ----

> <Gold.PLP.Fitness>
33.8125

> <Gold.PLP.PLP>
-33.8489

> <Gold.PLP.part.hbond>
-1.9007

> <Gold.PLP.part.metal>
0.0000

> <Gold.PLP.part.buried>
-1.5694

> <Gold.PLP.part.nonpolar>
-32.6873

> <Gold.PLP.part.repulsive>
1.5369

> <Gold.PLP.ligand.clash>
1.3524

> <Gold.PLP.ligand.torsion>
0.4220

> <Gold.PLP.Chemscore.Hbond>
0.7200

> <Gold.PLP.Chemscore.CHOScore>
0.0000

> <Gold.PLP.Chemscore.Metal>
0.0000

> <Gold.Chemscore.Hbonds>
donor molecule, donor type, donor heavy atom, donor atom, acceptor molecule, acceptor atom, score
      L1  H     8    22       P1  2674  0.42

> <Gold.PLP.Chemscore.Internal.Correction>
   9.000000E+99

