#       Name:                CT1002167954
#       Creating user name   hitesit
#       Creation time:       Sun Apr 16 22:51:09 2023


#       File generated by GOLD software.
#

@<TRIPOS>MOLECULE
CT1002167954|ligand_prepared|mol2|1|dock9
    29    30     1
SMALL
NO_CHARGES


@<TRIPOS>ATOM
      1 C1          -9.3449  -6.9955  17.2333 C.3            1 RES1               0.0000
      2 C2          -8.0974  -6.4138  17.9291 C.ar           1 RES1               0.0000
      3 C3         -10.4037  -7.1603  18.3196 C.2            1 RES1               0.0000
      4 C4          -9.7248  -6.0035  16.1396 C.2            1 RES1               0.0000
      5 C5          -9.1051  -8.3710  16.5684 C.3            1 RES1               0.0000
      6 C6          -8.1743  -5.9267  19.2305 C.ar           1 RES1               0.0000
      7 C7          -6.8644  -6.3601  17.2846 C.ar           1 RES1               0.0000
      8 N8         -11.4418  -6.2759  18.3294 N.am           1 RES1               0.0000
      9 O9         -10.3084  -8.0285  19.1783 O.2            1 RES1               0.0000
     10 N10        -10.9166  -5.3384  16.2618 N.am           1 RES1               0.0000
     11 O11         -8.9952  -5.7795  15.1816 O.2            1 RES1               0.0000
     12 C12        -10.3718  -9.0260  16.0406 C.3            1 RES1               0.0000
     13 C13         -7.0584  -5.4074  19.8657 C.ar           1 RES1               0.0000
     14 C14         -5.7497  -5.8402  17.9216 C.ar           1 RES1               0.0000
     15 C15        -11.7780  -5.4069  17.3227 C.2            1 RES1               0.0000
     16 C16         -5.8454  -5.3642  19.2120 C.ar           1 RES1               0.0000
     17 O17        -12.8046  -4.7365  17.3850 O.2            1 RES1               0.0000
     18 H18         -8.4008  -8.2433  15.7371 H              1 RES1               0.0000
     19 H19         -8.6402  -9.0414  17.3018 H              1 RES1               0.0000
     20 H20         -9.1210  -5.9501  19.7599 H              1 RES1               0.0000
     21 H21         -6.7658  -6.7279  16.2689 H              1 RES1               0.0000
     22 H22        -12.0217  -6.2591  19.1623 H              1 RES1               0.0000
     23 H23        -11.1868  -4.7365  15.4904 H              1 RES1               0.0000
     24 H24        -10.1473  -9.9879  15.5843 H              1 RES1               0.0000
     25 H25        -11.0850  -9.1910  16.8455 H              1 RES1               0.0000
     26 H26        -10.8470  -8.3976  15.2901 H              1 RES1               0.0000
     27 H27         -7.1394  -5.0328  20.8807 H              1 RES1               0.0000
     28 H28         -4.7972  -5.8076  17.4031 H              1 RES1               0.0000
     29 H29         -4.9713  -4.9577  19.7099 H              1 RES1               0.0000
@<TRIPOS>BOND
    1    1    2 1     
    2    1    3 1     
    3    1    4 1     
    4    1    5 1     
    5    2    6 ar    
    6    2    7 ar    
    7    3    8 1     
    8    3    9 2     
    9    4   10 1     
   10    4   11 2     
   11    5   12 1     
   12    5   18 1     
   13    5   19 1     
   14    6   13 ar    
   15    6   20 1     
   16    7   14 ar    
   17    7   21 1     
   18    8   15 1     
   19    8   22 1     
   20   10   15 1     
   21   10   23 1     
   22   12   24 1     
   23   12   25 1     
   24   12   26 1     
   25   13   16 ar    
   26   13   27 1     
   27   14   16 ar    
   28   14   28 1     
   29   15   17 2     
   30   16   29 1     
@<TRIPOS>SUBSTRUCTURE
      1 RES1           1
@<TRIPOS>SET
DONOR_HYDROGENS      STATIC     ATOMS    <user>   **** ""
2 22 23
ATOM$RED        STATIC     ATOMS    COLORGROUP SYSTEM
2 22 23
@<TRIPOS>COMMENT
> <Gold.Version>
2022.3.0

> <Gold.Id.Protein>
unknown|3ovv_clean|pdb

> <Gold.Protein.RotatedTorsions>
[  602  597  595  592 ] final   -9.54 input   59.96 | X-H torsion
[  622  617  616  613 ] final   37.18 input   59.98 | X-H torsion
[ 2635 2624 2623 2622 ] final -168.37 input   60.00 | X-H torsion
[ 3186 3179 3177 3174 ] final  138.16 input   59.97 | X-H torsion
[ 5212 5203 5202 5200 ] final   94.60 input   59.98 | X-H torsion

> <Gold.Protein.ActiveResidues>
 GLY50   THR51   GLY52   SER53   PHE54   GLY55   ARG56   VAL57   LYS72   GLU127 
 PHE129  ASP166  LYS168  GLU170  ASN171  THR183  ASP184  THR201  TYR330 

> <Gold.Protein.RotatedAtoms>
   -6.1018   -2.6825   13.7938 H   0  0  0  0  0  0  0  0  0  0  0  0  # atno 602  bound_to 597 
   -7.3612    1.0013   20.7351 H   0  0  0  0  0  0  0  0  0  0  0  0  # atno 622  bound_to 617 
  -13.7951   -1.4085   19.1496 H   0  0  0  0  0  0  0  0  0  0  0  0  # atno 2635 bound_to 2624
  -14.9773   -0.6057   18.3109 H   0  0  0  0  0  0  0  0  0  0  0  0  # atno 2636 bound_to 2624
  -15.1234   -0.8220   19.9477 H   0  0  0  0  0  0  0  0  0  0  0  0  # atno 2637 bound_to 2624
  -16.7163   -0.7031   20.5378 H   0  0  0  0  0  0  0  0  0  0  0  0  # atno 3186 bound_to 3179
   -8.5383   -5.0965   11.6242 H   0  0  0  0  0  0  0  0  0  0  0  0  # atno 5212 bound_to 5203
   -4.9422   -2.1434   12.7875 LP  0  0  0  0  0  0  0  0  0  0  0  0  # atno 5529 bound_to 597 
   -5.3432   -1.2789   14.1136 LP  0  0  0  0  0  0  0  0  0  0  0  0  # atno 5530 bound_to 597 
   -7.1688    2.6079   20.5622 LP  0  0  0  0  0  0  0  0  0  0  0  0  # atno 5533 bound_to 617 
   -7.5873    1.9842   22.0122 LP  0  0  0  0  0  0  0  0  0  0  0  0  # atno 5534 bound_to 617 
  -16.2201    0.4190   21.6073 LP  0  0  0  0  0  0  0  0  0  0  0  0  # atno 5539 bound_to 3179
  -15.7947    0.5408   20.0354 LP  0  0  0  0  0  0  0  0  0  0  0  0  # atno 5540 bound_to 3179
   -8.9234   -5.6180   10.1316 LP  0  0  0  0  0  0  0  0  0  0  0  0  # atno 5541 bound_to 5203
   -8.8388   -4.0173   10.4439 LP  0  0  0  0  0  0  0  0  0  0  0  0  # atno 5542 bound_to 5203

> <Gold.Score>
     Fitness  S(hb_ext) S(vdw_ext)  S(hb_int)    S(int)      intcor
     37.78       0.05      28.87       0.00      -1.97      -0.76

> <Gold.Goldscore.Fitness>
37.7782

> <Gold.Goldscore.Internal.Vdw>
-2.2658

> <Gold.Goldscore.Internal.Torsion>
-0.4592

> <Gold.Goldscore.External.Vdw>
28.8659

> <Gold.Goldscore.Internal.HBond>
0.0000

> <Gold.Goldscore.External.HBond>
0.0541

> <Gold.Goldscore.Internal.Correction>
-0.7585

> <Gold.Goldscore.Hbonds>
donor molecule, donor type, donor heavy atom, donor atom, acceptor molecule, acceptor atom, score
      P1  H  5203  5212       L1    11  0.03

> <Gold.Goldscore.Internal.Vdw.Weighted>
-2.2658

> <Gold.Goldscore.Internal.Torsion.Weighted>
-0.4592

> <Gold.Goldscore.External.Vdw.Weighted>
39.6906

> <Gold.Goldscore.Internal.HBond.Weighted>
0.0000

> <Gold.Goldscore.External.HBond.Weighted>
0.0541

> <Gold.Goldscore.Internal.Correction.Weighted>
-0.7585

> <Gold.Rescore>
     Score     S(PLP)   S(hbond)     S(cho)   S(metal)  DE(clash)   DE(tors)     intcor
     33.71     -34.25       0.53       0.00       0.00       2.01       0.07       ----

> <Gold.PLP.Fitness>
33.7119

> <Gold.PLP.PLP>
-34.2541

> <Gold.PLP.part.hbond>
-2.0000

> <Gold.PLP.part.metal>
0.0000

> <Gold.PLP.part.buried>
-0.3647

> <Gold.PLP.part.nonpolar>
-34.1304

> <Gold.PLP.part.repulsive>
1.3565

> <Gold.PLP.ligand.clash>
2.0061

> <Gold.PLP.ligand.torsion>
0.0676

> <Gold.PLP.Chemscore.Hbond>
0.5330

> <Gold.PLP.Chemscore.CHOScore>
0.0000

> <Gold.PLP.Chemscore.Metal>
0.0000

> <Gold.Chemscore.Hbonds>
donor molecule, donor type, donor heavy atom, donor atom, acceptor molecule, acceptor atom, score
      L1  H     8    22       P1  2674  0.38

> <Gold.PLP.Chemscore.Internal.Correction>
   9.000000E+99

