#       Name:                CT1002167954
#       Creating user name   hitesit
#       Creation time:       Sun Apr 16 22:51:10 2023


#       File generated by GOLD software.
#

@<TRIPOS>MOLECULE
CT1002167954|ligand_prepared|mol2|1|dock10
    29    30     1
SMALL
NO_CHARGES


@<TRIPOS>ATOM
      1 C1          -9.3934  -7.5999  18.0120 C.3            1 RES1               0.0000
      2 C2          -9.2878  -9.1370  17.9408 C.ar           1 RES1               0.0000
      3 C3          -8.6430  -7.0622  16.7971 C.2            1 RES1               0.0000
      4 C4         -10.8830  -7.2745  18.0174 C.2            1 RES1               0.0000
      5 C5          -8.7663  -6.9889  19.2867 C.3            1 RES1               0.0000
      6 C6          -9.3946  -9.7989  16.7212 C.ar           1 RES1               0.0000
      7 C7          -9.0812  -9.9050  19.0836 C.ar           1 RES1               0.0000
      8 N8          -9.3841  -6.5620  15.7672 N.am           1 RES1               0.0000
      9 O9          -7.4212  -7.1124  16.7269 O.2            1 RES1               0.0000
     10 N10        -11.3967  -6.5997  16.9410 N.am           1 RES1               0.0000
     11 O11        -11.6196  -7.6110  18.9363 O.2            1 RES1               0.0000
     12 C12         -8.6043  -5.4782  19.2267 C.3            1 RES1               0.0000
     13 C13         -9.2956 -11.1783  16.6464 C.ar           1 RES1               0.0000
     14 C14         -8.9828 -11.2845  19.0066 C.ar           1 RES1               0.0000
     15 C15        -10.7207  -6.2557  15.8021 C.2            1 RES1               0.0000
     16 C16         -9.0892 -11.9220  17.7888 C.ar           1 RES1               0.0000
     17 O17        -11.2649  -5.6980  14.8535 O.2            1 RES1               0.0000
     18 H18         -9.3977  -7.2424  20.1472 H              1 RES1               0.0000
     19 H19         -7.7811  -7.4435  19.4483 H              1 RES1               0.0000
     20 H20         -9.5596  -9.2306  15.8119 H              1 RES1               0.0000
     21 H21         -8.9955  -9.4251  20.0525 H              1 RES1               0.0000
     22 H22         -8.8996  -6.4008  14.8899 H              1 RES1               0.0000
     23 H23        -12.3734  -6.3286  16.9937 H              1 RES1               0.0000
     24 H24         -8.1601  -5.1011  20.1455 H              1 RES1               0.0000
     25 H25         -7.9612  -5.1919  18.3971 H              1 RES1               0.0000
     26 H26         -9.5682  -4.9920  19.0918 H              1 RES1               0.0000
     27 H27         -9.3815 -11.6754  15.6858 H              1 RES1               0.0000
     28 H28         -8.8209 -11.8658  19.9083 H              1 RES1               0.0000
     29 H29         -9.0113 -13.0026  17.7299 H              1 RES1               0.0000
@<TRIPOS>BOND
    1    1    2 1     
    2    1    3 1     
    3    1    4 1     
    4    1    5 1     
    5    2    6 ar    
    6    2    7 ar    
    7    3    8 1     
    8    3    9 2     
    9    4   10 1     
   10    4   11 2     
   11    5   12 1     
   12    5   18 1     
   13    5   19 1     
   14    6   13 ar    
   15    6   20 1     
   16    7   14 ar    
   17    7   21 1     
   18    8   15 1     
   19    8   22 1     
   20   10   15 1     
   21   10   23 1     
   22   12   24 1     
   23   12   25 1     
   24   12   26 1     
   25   13   16 ar    
   26   13   27 1     
   27   14   16 ar    
   28   14   28 1     
   29   15   17 2     
   30   16   29 1     
@<TRIPOS>SUBSTRUCTURE
      1 RES1           1
@<TRIPOS>SET
DONOR_HYDROGENS      STATIC     ATOMS    <user>   **** ""
2 22 23
ATOM$RED        STATIC     ATOMS    COLORGROUP SYSTEM
2 22 23
@<TRIPOS>COMMENT
> <Gold.Version>
2022.3.0

> <Gold.Id.Protein>
unknown|3ovv_clean|pdb

> <Gold.Protein.RotatedTorsions>
[  602  597  595  592 ] final   45.57 input   59.96 | X-H torsion
[  622  617  616  613 ] final -175.52 input   59.98 | X-H torsion
[ 2635 2624 2623 2622 ] final  -34.16 input   60.00 | X-H torsion
[ 3186 3179 3177 3174 ] final  178.20 input   59.97 | X-H torsion
[ 5212 5203 5202 5200 ] final   87.26 input   59.98 | X-H torsion

> <Gold.Protein.ActiveResidues>
 GLY50   THR51   GLY52   SER53   PHE54   GLY55   ARG56   VAL57   LYS72   GLU127 
 PHE129  ASP166  LYS168  GLU170  ASN171  THR183  ASP184  THR201  TYR330 

> <Gold.Protein.RotatedAtoms>
   -6.0170   -1.9998   14.3200 H   0  0  0  0  0  0  0  0  0  0  0  0  # atno 602  bound_to 597 
   -7.5087    2.3937   21.8610 H   0  0  0  0  0  0  0  0  0  0  0  0  # atno 622  bound_to 617 
  -15.1551   -0.5332   18.4494 H   0  0  0  0  0  0  0  0  0  0  0  0  # atno 2635 bound_to 2624
  -14.9410   -0.9391   20.0415 H   0  0  0  0  0  0  0  0  0  0  0  0  # atno 2636 bound_to 2624
  -13.7998   -1.3638   18.9170 H   0  0  0  0  0  0  0  0  0  0  0  0  # atno 2637 bound_to 2624
  -16.4491   -0.4735   20.0020 H   0  0  0  0  0  0  0  0  0  0  0  0  # atno 3186 bound_to 3179
   -8.5463   -5.2122   11.5940 H   0  0  0  0  0  0  0  0  0  0  0  0  # atno 5212 bound_to 5203
   -5.5279   -2.7639   12.9691 LP  0  0  0  0  0  0  0  0  0  0  0  0  # atno 5529 bound_to 597 
   -4.8431   -1.3461   13.4021 LP  0  0  0  0  0  0  0  0  0  0  0  0  # atno 5530 bound_to 597 
   -7.4754    0.9269   21.1573 LP  0  0  0  0  0  0  0  0  0  0  0  0  # atno 5533 bound_to 617 
   -7.1322    2.2629   20.2833 LP  0  0  0  0  0  0  0  0  0  0  0  0  # atno 5534 bound_to 617 
  -16.5685   -0.1241   21.5871 LP  0  0  0  0  0  0  0  0  0  0  0  0  # atno 5539 bound_to 3179
  -15.7153    0.8527   20.5949 LP  0  0  0  0  0  0  0  0  0  0  0  0  # atno 5540 bound_to 3179
   -8.9443   -5.5324   10.0490 LP  0  0  0  0  0  0  0  0  0  0  0  0  # atno 5541 bound_to 5203
   -8.8098   -3.9863   10.5569 LP  0  0  0  0  0  0  0  0  0  0  0  0  # atno 5542 bound_to 5203

> <Gold.Score>
     Fitness  S(hb_ext) S(vdw_ext)  S(hb_int)    S(int)      intcor
     44.82       0.00      32.80       0.00      -0.28      -0.76

> <Gold.Goldscore.Fitness>
44.8240

> <Gold.Goldscore.Internal.Vdw>
-0.4313

> <Gold.Goldscore.Internal.Torsion>
-0.6047

> <Gold.Goldscore.External.Vdw>
32.8010

> <Gold.Goldscore.Internal.HBond>
0.0000

> <Gold.Goldscore.External.HBond>
0.0000

> <Gold.Goldscore.Internal.Correction>
-0.7585

> <Gold.Goldscore.Internal.Vdw.Weighted>
-0.4313

> <Gold.Goldscore.Internal.Torsion.Weighted>
-0.6047

> <Gold.Goldscore.External.Vdw.Weighted>
45.1014

> <Gold.Goldscore.Internal.HBond.Weighted>
0.0000

> <Gold.Goldscore.External.HBond.Weighted>
0.0000

> <Gold.Goldscore.Internal.Correction.Weighted>
-0.7585

> <Gold.Rescore>
     Score     S(PLP)   S(hbond)     S(cho)   S(metal)  DE(clash)   DE(tors)     intcor
     47.99     -48.72       0.77       0.00       0.00       0.00       1.52       ----

> <Gold.PLP.Fitness>
47.9855

> <Gold.PLP.PLP>
-48.7201

> <Gold.PLP.part.hbond>
-3.0000

> <Gold.PLP.part.metal>
0.0000

> <Gold.PLP.part.buried>
-2.2761

> <Gold.PLP.part.nonpolar>
-45.4014

> <Gold.PLP.part.repulsive>
1.0900

> <Gold.PLP.ligand.clash>
0.0000

> <Gold.PLP.ligand.torsion>
1.5170

> <Gold.PLP.Chemscore.Hbond>
0.7665

> <Gold.PLP.Chemscore.CHOScore>
0.0000

> <Gold.PLP.Chemscore.Metal>
0.0000

> <Gold.PLP.Chemscore.Internal.Correction>
   9.000000E+99

