#       Name:                CT1002167954
#       Creating user name   hitesit
#       Creation time:       Sun Apr 16 22:51:02 2023


#       File generated by GOLD software.
#

@<TRIPOS>MOLECULE
CT1002167954|ligand_prepared|mol2|1|dock2
    29    30     1
SMALL
NO_CHARGES


@<TRIPOS>ATOM
      1 C1          -9.3832  -7.3036  18.0421 C.3            1 RES1               0.0000
      2 C2          -8.1774  -6.5115  18.5874 C.ar           1 RES1               0.0000
      3 C3          -9.1005  -7.5496  16.5629 C.2            1 RES1               0.0000
      4 C4          -9.4716  -8.5754  18.8784 C.2            1 RES1               0.0000
      5 C5         -10.7306  -6.5551  18.1668 C.3            1 RES1               0.0000
      6 C6          -6.9280  -6.6181  17.9840 C.ar           1 RES1               0.0000
      7 C7          -8.2995  -5.6695  19.6896 C.ar           1 RES1               0.0000
      8 N8          -8.7439  -8.8118  16.1891 N.am           1 RES1               0.0000
      9 O9          -9.1513  -6.6411  15.7430 O.2            1 RES1               0.0000
     10 N10         -9.2434  -9.7728  18.2523 N.am           1 RES1               0.0000
     11 O11         -9.7205  -8.5501  20.0774 O.2            1 RES1               0.0000
     12 C12        -11.8771  -7.2294  17.4298 C.3            1 RES1               0.0000
     13 C13         -5.8405  -5.9066  18.4631 C.ar           1 RES1               0.0000
     14 C14         -7.2107  -4.9590  20.1672 C.ar           1 RES1               0.0000
     15 C15         -8.8533  -9.9463  16.9523 C.2            1 RES1               0.0000
     16 C16         -5.9812  -5.0763  19.5546 C.ar           1 RES1               0.0000
     17 O17         -8.6140 -11.0522  16.4761 O.2            1 RES1               0.0000
     18 H18        -10.9926  -6.4743  19.2290 H              1 RES1               0.0000
     19 H19        -10.6075  -5.5384  17.7736 H              1 RES1               0.0000
     20 H20         -6.7975  -7.2685  17.1255 H              1 RES1               0.0000
     21 H21         -9.2569  -5.5624  20.1881 H              1 RES1               0.0000
     22 H22         -8.3604  -8.9223  15.2559 H              1 RES1               0.0000
     23 H23         -9.3767 -10.6125  18.8067 H              1 RES1               0.0000
     24 H24        -12.7986  -6.6635  17.5498 H              1 RES1               0.0000
     25 H25        -11.6612  -7.3037  16.3660 H              1 RES1               0.0000
     26 H26        -12.0440  -8.2340  17.8128 H              1 RES1               0.0000
     27 H27         -4.8747  -6.0035  17.9782 H              1 RES1               0.0000
     28 H28         -7.3258  -4.3072  21.0270 H              1 RES1               0.0000
     29 H29         -5.1293  -4.5187  19.9295 H              1 RES1               0.0000
@<TRIPOS>BOND
    1    1    2 1     
    2    1    3 1     
    3    1    4 1     
    4    1    5 1     
    5    2    6 ar    
    6    2    7 ar    
    7    3    8 1     
    8    3    9 2     
    9    4   10 1     
   10    4   11 2     
   11    5   12 1     
   12    5   18 1     
   13    5   19 1     
   14    6   13 ar    
   15    6   20 1     
   16    7   14 ar    
   17    7   21 1     
   18    8   15 1     
   19    8   22 1     
   20   10   15 1     
   21   10   23 1     
   22   12   24 1     
   23   12   25 1     
   24   12   26 1     
   25   13   16 ar    
   26   13   27 1     
   27   14   16 ar    
   28   14   28 1     
   29   15   17 2     
   30   16   29 1     
@<TRIPOS>SUBSTRUCTURE
      1 RES1           1
@<TRIPOS>SET
DONOR_HYDROGENS      STATIC     ATOMS    <user>   **** ""
2 22 23
ATOM$RED        STATIC     ATOMS    COLORGROUP SYSTEM
2 22 23
@<TRIPOS>COMMENT
> <Gold.Version>
2022.3.0

> <Gold.Id.Protein>
unknown|3ovv_clean|pdb

> <Gold.Protein.RotatedTorsions>
[  602  597  595  592 ] final  -78.99 input   59.96 | X-H torsion
[  622  617  616  613 ] final  104.89 input   59.98 | X-H torsion
[ 2635 2624 2623 2622 ] final   84.64 input   60.00 | X-H torsion
[ 3186 3179 3177 3174 ] final    6.90 input   59.97 | X-H torsion
[ 5212 5203 5202 5200 ] final   72.83 input   59.98 | X-H torsion

> <Gold.Protein.ActiveResidues>
 GLY50   THR51   GLY52   SER53   PHE54   GLY55   ARG56   VAL57   LYS72   GLU127 
 PHE129  ASP166  LYS168  GLU170  ASN171  THR183  ASP184  THR201  TYR330 

> <Gold.Protein.RotatedAtoms>
   -5.4720   -2.7277   12.9343 H   0  0  0  0  0  0  0  0  0  0  0  0  # atno 602  bound_to 597 
   -7.5893    1.2049   21.7325 H   0  0  0  0  0  0  0  0  0  0  0  0  # atno 622  bound_to 617 
  -14.9572   -0.9293   20.0354 H   0  0  0  0  0  0  0  0  0  0  0  0  # atno 2635 bound_to 2624
  -13.7972   -1.3685   18.9368 H   0  0  0  0  0  0  0  0  0  0  0  0  # atno 2636 bound_to 2624
  -15.1415   -0.5382   18.4359 H   0  0  0  0  0  0  0  0  0  0  0  0  # atno 2637 bound_to 2624
  -16.1192    0.5515   21.5280 H   0  0  0  0  0  0  0  0  0  0  0  0  # atno 3186 bound_to 3179
   -8.5724   -5.4236   11.4944 H   0  0  0  0  0  0  0  0  0  0  0  0  # atno 5212 bound_to 5203
   -4.8678   -1.3131   13.4649 LP  0  0  0  0  0  0  0  0  0  0  0  0  # atno 5529 bound_to 597 
   -6.0520   -2.0637   14.3020 LP  0  0  0  0  0  0  0  0  0  0  0  0  # atno 5530 bound_to 597 
   -7.1761    1.6169   20.2134 LP  0  0  0  0  0  0  0  0  0  0  0  0  # atno 5533 bound_to 617 
   -7.3504    2.7700   21.3565 LP  0  0  0  0  0  0  0  0  0  0  0  0  # atno 5534 bound_to 617 
  -15.8594    0.4048   19.9280 LP  0  0  0  0  0  0  0  0  0  0  0  0  # atno 5539 bound_to 3179
  -16.7565   -0.7080   20.7178 LP  0  0  0  0  0  0  0  0  0  0  0  0  # atno 5540 bound_to 3179
   -8.9765   -5.3361    9.9205 LP  0  0  0  0  0  0  0  0  0  0  0  0  # atno 5541 bound_to 5203
   -8.7512   -3.9697   10.7857 LP  0  0  0  0  0  0  0  0  0  0  0  0  # atno 5542 bound_to 5203

> <Gold.Score>
     Fitness  S(hb_ext) S(vdw_ext)  S(hb_int)    S(int)      intcor
     40.23       0.16      29.74       0.00      -0.83      -0.79

> <Gold.Goldscore.Fitness>
40.2279

> <Gold.Goldscore.Internal.Vdw>
-1.1060

> <Gold.Goldscore.Internal.Torsion>
-0.5123

> <Gold.Goldscore.External.Vdw>
29.7435

> <Gold.Goldscore.Internal.HBond>
0.0000

> <Gold.Goldscore.External.HBond>
0.1596

> <Gold.Goldscore.Internal.Correction>
-0.7893

> <Gold.Goldscore.Hbonds>
donor molecule, donor type, donor heavy atom, donor atom, acceptor molecule, acceptor atom, score
      P1  H   932   945       L1    11  0.03

> <Gold.Goldscore.Internal.Vdw.Weighted>
-1.1060

> <Gold.Goldscore.Internal.Torsion.Weighted>
-0.5123

> <Gold.Goldscore.External.Vdw.Weighted>
40.8973

> <Gold.Goldscore.Internal.HBond.Weighted>
0.0000

> <Gold.Goldscore.External.HBond.Weighted>
0.1596

> <Gold.Goldscore.Internal.Correction.Weighted>
-0.7893

> <Gold.Rescore>
     Score     S(PLP)   S(hbond)     S(cho)   S(metal)  DE(clash)   DE(tors)     intcor
     39.33     -41.53       0.00       0.00       0.00       0.00       1.10       ----

> <Gold.PLP.Fitness>
39.3289

> <Gold.PLP.PLP>
-41.5303

> <Gold.PLP.part.hbond>
0.0000

> <Gold.PLP.part.metal>
0.0000

> <Gold.PLP.part.buried>
-5.3530

> <Gold.PLP.part.nonpolar>
-37.5103

> <Gold.PLP.part.repulsive>
0.2507

> <Gold.PLP.ligand.clash>
0.0000

> <Gold.PLP.ligand.torsion>
1.1007

> <Gold.PLP.Chemscore.Hbond>
0.0000

> <Gold.PLP.Chemscore.CHOScore>
0.0000

> <Gold.PLP.Chemscore.Metal>
0.0000

> <Gold.PLP.Chemscore.Internal.Correction>
   9.000000E+99

