#       Name:                CT1002167954
#       Creating user name   hitesit
#       Creation time:       Sun Apr 16 22:51:06 2023


#       File generated by GOLD software.
#

@<TRIPOS>MOLECULE
CT1002167954|ligand_prepared|mol2|1|dock6
    29    30     1
SMALL
NO_CHARGES


@<TRIPOS>ATOM
      1 C1          -9.0421  -7.0494  18.6879 C.3            1 RES1               0.0000
      2 C2          -7.7226  -6.3172  19.0065 C.ar           1 RES1               0.0000
      3 C3          -8.9104  -7.5676  17.2588 C.2            1 RES1               0.0000
      4 C4          -9.1850  -8.1467  19.7368 C.2            1 RES1               0.0000
      5 C5         -10.2939  -6.1450  18.7691 C.3            1 RES1               0.0000
      6 C6          -7.5994  -5.5484  20.1599 C.ar           1 RES1               0.0000
      7 C7          -6.6210  -6.4029  18.1593 C.ar           1 RES1               0.0000
      8 N8          -8.7127  -8.9060  17.0877 N.am           1 RES1               0.0000
      9 O9          -8.9399  -6.8079  16.2984 O.2            1 RES1               0.0000
     10 N10         -9.1294  -9.4493  19.3150 N.am           1 RES1               0.0000
     11 O11         -9.3286  -7.8951  20.9269 O.2            1 RES1               0.0000
     12 C12        -11.5332  -6.7549  18.1334 C.3            1 RES1               0.0000
     13 C13         -6.4168  -4.8916  20.4574 C.ar           1 RES1               0.0000
     14 C14         -5.4393  -5.7451  18.4585 C.ar           1 RES1               0.0000
     15 C15         -8.8690  -9.8787  18.0422 C.2            1 RES1               0.0000
     16 C16         -5.3360  -4.9898  19.6072 C.ar           1 RES1               0.0000
     17 O17         -8.7807 -11.0681  17.7510 O.2            1 RES1               0.0000
     18 H18        -10.5070  -5.9308  19.8236 H              1 RES1               0.0000
     19 H19        -10.0742  -5.1925  18.2712 H              1 RES1               0.0000
     20 H20         -8.4400  -5.4574  20.8397 H              1 RES1               0.0000
     21 H21         -6.6797  -6.9906  17.2495 H              1 RES1               0.0000
     22 H22         -8.4216  -9.2121  16.1647 H              1 RES1               0.0000
     23 H23         -9.2979 -10.1651  20.0147 H              1 RES1               0.0000
     24 H24        -12.3821  -6.0797  18.2179 H              1 RES1               0.0000
     25 H25        -11.3653  -6.9577  17.0777 H              1 RES1               0.0000
     26 H26        -11.7955  -7.6916  18.6209 H              1 RES1               0.0000
     27 H27         -6.3410  -4.2973  21.3620 H              1 RES1               0.0000
     28 H28         -4.5914  -5.8247  17.7862 H              1 RES1               0.0000
     29 H29         -4.4096  -4.4754  19.8406 H              1 RES1               0.0000
@<TRIPOS>BOND
    1    1    2 1     
    2    1    3 1     
    3    1    4 1     
    4    1    5 1     
    5    2    6 ar    
    6    2    7 ar    
    7    3    8 1     
    8    3    9 2     
    9    4   10 1     
   10    4   11 2     
   11    5   12 1     
   12    5   18 1     
   13    5   19 1     
   14    6   13 ar    
   15    6   20 1     
   16    7   14 ar    
   17    7   21 1     
   18    8   15 1     
   19    8   22 1     
   20   10   15 1     
   21   10   23 1     
   22   12   24 1     
   23   12   25 1     
   24   12   26 1     
   25   13   16 ar    
   26   13   27 1     
   27   14   16 ar    
   28   14   28 1     
   29   15   17 2     
   30   16   29 1     
@<TRIPOS>SUBSTRUCTURE
      1 RES1           1
@<TRIPOS>SET
DONOR_HYDROGENS      STATIC     ATOMS    <user>   **** ""
2 22 23
ATOM$RED        STATIC     ATOMS    COLORGROUP SYSTEM
2 22 23
@<TRIPOS>COMMENT
> <Gold.Version>
2022.3.0

> <Gold.Id.Protein>
unknown|3ovv_clean|pdb

> <Gold.Protein.RotatedTorsions>
[  602  597  595  592 ] final  -25.14 input   59.96 | X-H torsion
[  622  617  616  613 ] final   91.53 input   59.98 | X-H torsion
[ 2635 2624 2623 2622 ] final   39.54 input   60.00 | X-H torsion
[ 3186 3179 3177 3174 ] final -137.29 input   59.97 | X-H torsion
[ 5212 5203 5202 5200 ] final  105.40 input   59.98 | X-H torsion

> <Gold.Protein.ActiveResidues>
 GLY50   THR51   GLY52   SER53   PHE54   GLY55   ARG56   VAL57   LYS72   GLU127 
 PHE129  ASP166  LYS168  GLU170  ASN171  THR183  ASP184  THR201  TYR330 

> <Gold.Protein.RotatedAtoms>
   -6.0165   -2.7920   13.5810 H   0  0  0  0  0  0  0  0  0  0  0  0  # atno 602  bound_to 597 
   -7.5603    1.0699   21.5640 H   0  0  0  0  0  0  0  0  0  0  0  0  # atno 622  bound_to 617 
  -15.4110   -0.5946   19.5660 H   0  0  0  0  0  0  0  0  0  0  0  0  # atno 2635 bound_to 2624
  -13.9676   -1.4038   19.6497 H   0  0  0  0  0  0  0  0  0  0  0  0  # atno 2636 bound_to 2624
  -14.5173   -0.8376   18.1922 H   0  0  0  0  0  0  0  0  0  0  0  0  # atno 2637 bound_to 2624
  -16.0478    0.0793   19.8108 H   0  0  0  0  0  0  0  0  0  0  0  0  # atno 3186 bound_to 3179
   -8.5332   -4.9213   11.6420 H   0  0  0  0  0  0  0  0  0  0  0  0  # atno 5212 bound_to 5203
   -4.8428   -1.9210   12.8658 LP  0  0  0  0  0  0  0  0  0  0  0  0  # atno 5529 bound_to 597 
   -5.5286   -1.3911   14.2498 LP  0  0  0  0  0  0  0  0  0  0  0  0  # atno 5530 bound_to 597 
   -7.1490    1.8330   20.1868 LP  0  0  0  0  0  0  0  0  0  0  0  0  # atno 5533 bound_to 617 
   -7.4067    2.6899   21.5528 LP  0  0  0  0  0  0  0  0  0  0  0  0  # atno 5534 bound_to 617 
  -16.7723   -0.6033   21.0985 LP  0  0  0  0  0  0  0  0  0  0  0  0  # atno 5539 bound_to 3179
  -15.9155    0.7755   21.2760 LP  0  0  0  0  0  0  0  0  0  0  0  0  # atno 5540 bound_to 3179
   -8.8882   -5.7223   10.2707 LP  0  0  0  0  0  0  0  0  0  0  0  0  # atno 5541 bound_to 5203
   -8.8791   -4.0894   10.2869 LP  0  0  0  0  0  0  0  0  0  0  0  0  # atno 5542 bound_to 5203

> <Gold.Score>
     Fitness  S(hb_ext) S(vdw_ext)  S(hb_int)    S(int)      intcor
     43.76       2.64      31.38       0.00      -2.03      -0.79

> <Gold.Goldscore.Fitness>
43.7566

> <Gold.Goldscore.Internal.Vdw>
-2.1274

> <Gold.Goldscore.Internal.Torsion>
-0.6883

> <Gold.Goldscore.External.Vdw>
31.3767

> <Gold.Goldscore.Internal.HBond>
0.0000

> <Gold.Goldscore.External.HBond>
2.6442

> <Gold.Goldscore.Internal.Correction>
-0.7850

> <Gold.Goldscore.Hbonds>
donor molecule, donor type, donor heavy atom, donor atom, acceptor molecule, acceptor atom, score
      P1  H   932   945       L1    11  0.44

> <Gold.Goldscore.Internal.Vdw.Weighted>
-2.1274

> <Gold.Goldscore.Internal.Torsion.Weighted>
-0.6883

> <Gold.Goldscore.External.Vdw.Weighted>
43.1430

> <Gold.Goldscore.Internal.HBond.Weighted>
0.0000

> <Gold.Goldscore.External.HBond.Weighted>
2.6442

> <Gold.Goldscore.Internal.Correction.Weighted>
-0.7850

> <Gold.Rescore>
     Score     S(PLP)   S(hbond)     S(cho)   S(metal)  DE(clash)   DE(tors)     intcor
     43.62     -42.47       0.99       0.00       0.00       0.62       0.60       ----

> <Gold.PLP.Fitness>
43.6205

> <Gold.PLP.PLP>
-42.4674

> <Gold.PLP.part.hbond>
-1.1269

> <Gold.PLP.part.metal>
0.0000

> <Gold.PLP.part.buried>
-3.3558

> <Gold.PLP.part.nonpolar>
-39.6887

> <Gold.PLP.part.repulsive>
0.3258

> <Gold.PLP.ligand.clash>
0.6178

> <Gold.PLP.ligand.torsion>
0.6015

> <Gold.PLP.Chemscore.Hbond>
0.9913

> <Gold.PLP.Chemscore.CHOScore>
0.0000

> <Gold.PLP.Chemscore.Metal>
0.0000

> <Gold.Chemscore.Hbonds>
donor molecule, donor type, donor heavy atom, donor atom, acceptor molecule, acceptor atom, score
      P1  H   932   945       L1    11  0.75

> <Gold.PLP.Chemscore.Internal.Correction>
   9.000000E+99

