#       Name:                CT1002167954
#       Creating user name   hitesit
#       Creation time:       Sun Apr 16 22:51:04 2023


#       File generated by GOLD software.
#

@<TRIPOS>MOLECULE
CT1002167954|ligand_prepared|mol2|1|dock4
    29    30     1
SMALL
NO_CHARGES


@<TRIPOS>ATOM
      1 C1          -9.5891  -8.2912  17.3899 C.3            1 RES1               0.0000
      2 C2          -9.2197  -9.7279  16.9676 C.ar           1 RES1               0.0000
      3 C3          -8.5804  -7.3715  16.7081 C.2            1 RES1               0.0000
      4 C4         -11.0307  -8.0728  16.9442 C.2            1 RES1               0.0000
      5 C5          -9.5193  -8.0512  18.9161 C.3            1 RES1               0.0000
      6 C6          -8.9680 -10.7055  17.9255 C.ar           1 RES1               0.0000
      7 C7          -9.1296 -10.0907  15.6263 C.ar           1 RES1               0.0000
      8 N8          -9.0152  -6.6329  15.6473 N.am           1 RES1               0.0000
      9 O9          -7.4114  -7.3247  17.0706 O.2            1 RES1               0.0000
     10 N10        -11.2667  -7.1402  15.9683 N.am           1 RES1               0.0000
     11 O11        -11.9624  -8.7117  17.4174 O.2            1 RES1               0.0000
     12 C12         -9.8514  -6.6258  19.3284 C.3            1 RES1               0.0000
     13 C13         -8.6410 -11.9997  17.5561 C.ar           1 RES1               0.0000
     14 C14         -8.8022 -11.3854  15.2591 C.ar           1 RES1               0.0000
     15 C15        -10.3210  -6.4323  15.2780 C.2            1 RES1               0.0000
     16 C16         -8.5583 -12.3407  16.2228 C.ar           1 RES1               0.0000
     17 O17        -10.6082  -5.6511  14.3755 O.2            1 RES1               0.0000
     18 H18        -10.2186  -8.7346  19.4133 H              1 RES1               0.0000
     19 H19         -8.5081  -8.2933  19.2657 H              1 RES1               0.0000
     20 H20         -9.0260 -10.4553  18.9795 H              1 RES1               0.0000
     21 H21         -9.3163  -9.3555  14.8510 H              1 RES1               0.0000
     22 H22         -8.3037  -6.1886  15.0757 H              1 RES1               0.0000
     23 H23        -12.2374  -6.9566  15.7350 H              1 RES1               0.0000
     24 H24         -9.7876  -6.5118  20.4085 H              1 RES1               0.0000
     25 H25         -9.1595  -5.9210  18.8718 H              1 RES1               0.0000
     26 H26        -10.8599  -6.3597  19.0185 H              1 RES1               0.0000
     27 H27         -8.4487 -12.7475  18.3184 H              1 RES1               0.0000
     28 H28         -8.7376 -11.6491  14.2086 H              1 RES1               0.0000
     29 H29         -8.3025 -13.3546  15.9337 H              1 RES1               0.0000
@<TRIPOS>BOND
    1    1    2 1     
    2    1    3 1     
    3    1    4 1     
    4    1    5 1     
    5    2    6 ar    
    6    2    7 ar    
    7    3    8 1     
    8    3    9 2     
    9    4   10 1     
   10    4   11 2     
   11    5   12 1     
   12    5   18 1     
   13    5   19 1     
   14    6   13 ar    
   15    6   20 1     
   16    7   14 ar    
   17    7   21 1     
   18    8   15 1     
   19    8   22 1     
   20   10   15 1     
   21   10   23 1     
   22   12   24 1     
   23   12   25 1     
   24   12   26 1     
   25   13   16 ar    
   26   13   27 1     
   27   14   16 ar    
   28   14   28 1     
   29   15   17 2     
   30   16   29 1     
@<TRIPOS>SUBSTRUCTURE
      1 RES1           1
@<TRIPOS>SET
DONOR_HYDROGENS      STATIC     ATOMS    <user>   **** ""
2 22 23
ATOM$RED        STATIC     ATOMS    COLORGROUP SYSTEM
2 22 23
@<TRIPOS>COMMENT
> <Gold.Version>
2022.3.0

> <Gold.Id.Protein>
unknown|3ovv_clean|pdb

> <Gold.Protein.RotatedTorsions>
[  602  597  595  592 ] final    4.71 input   59.96 | X-H torsion
[  622  617  616  613 ] final  161.78 input   59.98 | X-H torsion
[ 2635 2624 2623 2622 ] final  112.01 input   60.00 | X-H torsion
[ 3186 3179 3177 3174 ] final  -68.56 input   59.97 | X-H torsion
[ 5212 5203 5202 5200 ] final   83.57 input   59.98 | X-H torsion

> <Gold.Protein.ActiveResidues>
 GLY50   THR51   GLY52   SER53   PHE54   GLY55   ARG56   VAL57   LYS72   GLU127 
 PHE129  ASP166  LYS168  GLU170  ASN171  THR183  ASP184  THR201  TYR330 

> <Gold.Protein.RotatedAtoms>
   -6.1388   -2.5406   13.9739 H   0  0  0  0  0  0  0  0  0  0  0  0  # atno 602  bound_to 597 
   -7.5739    2.0570   21.9956 H   0  0  0  0  0  0  0  0  0  0  0  0  # atno 622  bound_to 617 
  -14.5641   -1.1515   20.0676 H   0  0  0  0  0  0  0  0  0  0  0  0  # atno 2635 bound_to 2624
  -13.9395   -1.2173   18.5344 H   0  0  0  0  0  0  0  0  0  0  0  0  # atno 2636 bound_to 2624
  -15.3923   -0.4673   18.8062 H   0  0  0  0  0  0  0  0  0  0  0  0  # atno 2637 bound_to 2624
  -15.7162    0.8195   20.4890 H   0  0  0  0  0  0  0  0  0  0  0  0  # atno 3186 bound_to 3179
   -8.5517   -5.2686   11.5735 H   0  0  0  0  0  0  0  0  0  0  0  0  # atno 5212 bound_to 5203
   -5.0670   -2.3401   12.7661 LP  0  0  0  0  0  0  0  0  0  0  0  0  # atno 5529 bound_to 597 
   -5.1812   -1.2251   13.9537 LP  0  0  0  0  0  0  0  0  0  0  0  0  # atno 5530 bound_to 597 
   -7.3829    0.9693   20.8004 LP  0  0  0  0  0  0  0  0  0  0  0  0  # atno 5533 bound_to 617 
   -7.1590    2.5596   20.5045 LP  0  0  0  0  0  0  0  0  0  0  0  0  # atno 5534 bound_to 617 
  -16.5052   -0.5409   20.0700 LP  0  0  0  0  0  0  0  0  0  0  0  0  # atno 5539 bound_to 3179
  -16.5164   -0.0322   21.6217 LP  0  0  0  0  0  0  0  0  0  0  0  0  # atno 5540 bound_to 3179
   -8.9537   -5.4855   10.0116 LP  0  0  0  0  0  0  0  0  0  0  0  0  # atno 5541 bound_to 5203
   -8.7949   -3.9764   10.6149 LP  0  0  0  0  0  0  0  0  0  0  0  0  # atno 5542 bound_to 5203

> <Gold.Score>
     Fitness  S(hb_ext) S(vdw_ext)  S(hb_int)    S(int)      intcor
     44.85       0.80      32.66       0.00      -0.85      -0.79

> <Gold.Goldscore.Fitness>
44.8501

> <Gold.Goldscore.Internal.Vdw>
-1.2651

> <Gold.Goldscore.Internal.Torsion>
-0.3712

> <Gold.Goldscore.External.Vdw>
32.6559

> <Gold.Goldscore.Internal.HBond>
0.0000

> <Gold.Goldscore.External.HBond>
0.7995

> <Gold.Goldscore.Internal.Correction>
-0.7850

> <Gold.Goldscore.Hbonds>
donor molecule, donor type, donor heavy atom, donor atom, acceptor molecule, acceptor atom, score
      L1  H    10    23       P1  2655  0.40

> <Gold.Goldscore.Internal.Vdw.Weighted>
-1.2651

> <Gold.Goldscore.Internal.Torsion.Weighted>
-0.3712

> <Gold.Goldscore.External.Vdw.Weighted>
44.9019

> <Gold.Goldscore.Internal.HBond.Weighted>
0.0000

> <Gold.Goldscore.External.HBond.Weighted>
0.7995

> <Gold.Goldscore.Internal.Correction.Weighted>
-0.7850

> <Gold.Rescore>
     Score     S(PLP)   S(hbond)     S(cho)   S(metal)  DE(clash)   DE(tors)     intcor
     41.29     -40.18       1.04       0.00       0.00       0.00       1.01       ----

> <Gold.PLP.Fitness>
41.2883

> <Gold.PLP.PLP>
-40.1821

> <Gold.PLP.part.hbond>
-2.5273

> <Gold.PLP.part.metal>
0.0000

> <Gold.PLP.part.buried>
1.0002

> <Gold.PLP.part.nonpolar>
-44.6608

> <Gold.PLP.part.repulsive>
4.4250

> <Gold.PLP.ligand.clash>
0.0000

> <Gold.PLP.ligand.torsion>
1.0124

> <Gold.PLP.Chemscore.Hbond>
1.0437

> <Gold.PLP.Chemscore.CHOScore>
0.0000

> <Gold.PLP.Chemscore.Metal>
0.0000

> <Gold.Chemscore.Hbonds>
donor molecule, donor type, donor heavy atom, donor atom, acceptor molecule, acceptor atom, score
      L1  H    10    23       P1  2655  1.00

> <Gold.PLP.Chemscore.Internal.Correction>
   9.000000E+99

