#       Name:                CT1002167954
#       Creating user name   hitesit
#       Creation time:       Sun Apr 16 22:51:05 2023


#       File generated by GOLD software.
#

@<TRIPOS>MOLECULE
CT1002167954|ligand_prepared|mol2|1|dock5
    29    30     1
SMALL
NO_CHARGES


@<TRIPOS>ATOM
      1 C1          -8.3146  -1.9878  22.3764 C.3            1 RES1               0.0000
      2 C2          -7.4548  -3.0204  21.6194 C.ar           1 RES1               0.0000
      3 C3          -8.9171  -1.0716  21.3154 C.2            1 RES1               0.0000
      4 C4          -9.3452  -2.7875  23.1658 C.2            1 RES1               0.0000
      5 C5          -7.5143  -1.1213  23.3765 C.3            1 RES1               0.0000
      6 C6          -6.0881  -3.1190  21.8625 C.ar           1 RES1               0.0000
      7 C7          -8.0135  -3.8815  20.6786 C.ar           1 RES1               0.0000
      8 N8         -10.2431  -1.2190  21.0324 N.am           1 RES1               0.0000
      9 O9          -8.2305  -0.2593  20.7080 O.2            1 RES1               0.0000
     10 N10        -10.6646  -2.6511  22.8216 N.am           1 RES1               0.0000
     11 O11         -9.0251  -3.5472  24.0717 O.2            1 RES1               0.0000
     12 C12         -8.3543  -0.0723  24.0880 C.3            1 RES1               0.0000
     13 C13         -5.3086  -4.0468  21.1917 C.ar           1 RES1               0.0000
     14 C14         -7.2321  -4.8084  20.0087 C.ar           1 RES1               0.0000
     15 C15        -11.1574  -1.9266  21.7707 C.2            1 RES1               0.0000
     16 C16         -5.8800  -4.8923  20.2648 C.ar           1 RES1               0.0000
     17 O17        -12.3525  -1.8964  21.4913 O.2            1 RES1               0.0000
     18 H18         -7.0593  -1.7785  24.1278 H              1 RES1               0.0000
     19 H19         -6.7031  -0.6173  22.8366 H              1 RES1               0.0000
     20 H20         -5.6203  -2.4604  22.5867 H              1 RES1               0.0000
     21 H21         -9.0749  -3.8326  20.4602 H              1 RES1               0.0000
     22 H22        -10.5866  -0.7608  20.1943 H              1 RES1               0.0000
     23 H23        -11.3421  -3.1342  23.4028 H              1 RES1               0.0000
     24 H24         -7.7443   0.5074  24.7776 H              1 RES1               0.0000
     25 H25         -8.8018   0.6140  23.3722 H              1 RES1               0.0000
     26 H26         -9.1559  -0.5403  24.6557 H              1 RES1               0.0000
     27 H27         -4.2447  -4.1078  21.3959 H              1 RES1               0.0000
     28 H28         -7.6860  -5.4714  19.2795 H              1 RES1               0.0000
     29 H29         -5.2692  -5.6192  19.7397 H              1 RES1               0.0000
@<TRIPOS>BOND
    1    1    2 1     
    2    1    3 1     
    3    1    4 1     
    4    1    5 1     
    5    2    6 ar    
    6    2    7 ar    
    7    3    8 1     
    8    3    9 2     
    9    4   10 1     
   10    4   11 2     
   11    5   12 1     
   12    5   18 1     
   13    5   19 1     
   14    6   13 ar    
   15    6   20 1     
   16    7   14 ar    
   17    7   21 1     
   18    8   15 1     
   19    8   22 1     
   20   10   15 1     
   21   10   23 1     
   22   12   24 1     
   23   12   25 1     
   24   12   26 1     
   25   13   16 ar    
   26   13   27 1     
   27   14   16 ar    
   28   14   28 1     
   29   15   17 2     
   30   16   29 1     
@<TRIPOS>SUBSTRUCTURE
      1 RES1           1
@<TRIPOS>SET
DONOR_HYDROGENS      STATIC     ATOMS    <user>   **** ""
2 22 23
ATOM$RED        STATIC     ATOMS    COLORGROUP SYSTEM
2 22 23
@<TRIPOS>COMMENT
> <Gold.Version>
2022.3.0

> <Gold.Id.Protein>
unknown|3ovv_clean|pdb

> <Gold.Protein.RotatedTorsions>
[  602  597  595  592 ] final -115.85 input   59.96 | X-H torsion
[  622  617  616  613 ] final  -46.29 input   59.98 | X-H torsion
[ 2635 2624 2623 2622 ] final  153.25 input   60.00 | X-H torsion
[ 3186 3179 3177 3174 ] final  -69.60 input   59.97 | X-H torsion
[ 5212 5203 5202 5200 ] final   61.12 input   59.98 | X-H torsion

> <Gold.Protein.ActiveResidues>
 GLY50   THR51   GLY52   SER53   PHE54   GLY55   ARG56   VAL57   LYS72   GLU127 
 PHE129  ASP166  LYS168  GLU170  ASN171  THR183  ASP184  THR201  TYR330 

> <Gold.Protein.RotatedAtoms>
   -5.0630   -2.3317   12.7728 H   0  0  0  0  0  0  0  0  0  0  0  0  # atno 602  bound_to 597 
   -7.1314    2.1196   20.2350 H   0  0  0  0  0  0  0  0  0  0  0  0  # atno 622  bound_to 617 
  -14.0284   -1.3858   19.7332 H   0  0  0  0  0  0  0  0  0  0  0  0  # atno 2635 bound_to 2624
  -14.4262   -0.8895   18.2033 H   0  0  0  0  0  0  0  0  0  0  0  0  # atno 2636 bound_to 2624
  -15.4413   -0.5608   19.4717 H   0  0  0  0  0  0  0  0  0  0  0  0  # atno 2637 bound_to 2624
  -15.7161    0.8141   20.4729 H   0  0  0  0  0  0  0  0  0  0  0  0  # atno 3186 bound_to 3179
   -8.6027   -5.5719   11.3779 H   0  0  0  0  0  0  0  0  0  0  0  0  # atno 5212 bound_to 5203
   -5.1874   -1.2263   13.9605 LP  0  0  0  0  0  0  0  0  0  0  0  0  # atno 5529 bound_to 597 
   -6.1444   -2.5495   13.9691 LP  0  0  0  0  0  0  0  0  0  0  0  0  # atno 5530 bound_to 597 
   -7.4784    2.5144   21.7750 LP  0  0  0  0  0  0  0  0  0  0  0  0  # atno 5533 bound_to 617 
   -7.5092    0.9514   21.3030 LP  0  0  0  0  0  0  0  0  0  0  0  0  # atno 5534 bound_to 617 
  -16.5136   -0.5498   20.0821 LP  0  0  0  0  0  0  0  0  0  0  0  0  # atno 5539 bound_to 3179
  -16.5081   -0.0179   21.6260 LP  0  0  0  0  0  0  0  0  0  0  0  0  # atno 5540 bound_to 3179
   -8.9930   -5.1565    9.8537 LP  0  0  0  0  0  0  0  0  0  0  0  0  # atno 5541 bound_to 5203
   -8.7042   -3.9999   10.9698 LP  0  0  0  0  0  0  0  0  0  0  0  0  # atno 5542 bound_to 5203

> <Gold.Score>
     Fitness  S(hb_ext) S(vdw_ext)  S(hb_int)    S(int)      intcor
     42.90       7.31      26.50       0.00      -0.85      -0.79

> <Gold.Goldscore.Fitness>
42.9041

> <Gold.Goldscore.Internal.Vdw>
-1.2636

> <Gold.Goldscore.Internal.Torsion>
-0.3742

> <Gold.Goldscore.External.Vdw>
26.5034

> <Gold.Goldscore.Internal.HBond>
0.0000

> <Gold.Goldscore.External.HBond>
7.3147

> <Gold.Goldscore.Internal.Correction>
-0.7850

> <Gold.Goldscore.Hbonds>
donor molecule, donor type, donor heavy atom, donor atom, acceptor molecule, acceptor atom, score
      P1  H   612   618       L1     9  0.51
      P1  H  2624  2635       L1    17  1.00
      P1  H   932   944       L1    11  0.05

> <Gold.Goldscore.Internal.Vdw.Weighted>
-1.2636

> <Gold.Goldscore.Internal.Torsion.Weighted>
-0.3742

> <Gold.Goldscore.External.Vdw.Weighted>
36.4422

> <Gold.Goldscore.Internal.HBond.Weighted>
0.0000

> <Gold.Goldscore.External.HBond.Weighted>
7.3147

> <Gold.Goldscore.Internal.Correction.Weighted>
-0.7850

> <Gold.Rescore>
     Score     S(PLP)   S(hbond)     S(cho)   S(metal)  DE(clash)   DE(tors)     intcor
     45.20     -39.64       1.86       0.00       0.00       0.00       0.02       ----

> <Gold.PLP.Fitness>
45.1982

> <Gold.PLP.PLP>
-39.6422

> <Gold.PLP.part.hbond>
-3.1578

> <Gold.PLP.part.metal>
0.0000

> <Gold.PLP.part.buried>
-4.8310

> <Gold.PLP.part.nonpolar>
-33.9862

> <Gold.PLP.part.repulsive>
2.1122

> <Gold.PLP.ligand.clash>
0.0000

> <Gold.PLP.ligand.torsion>
0.0180

> <Gold.PLP.Chemscore.Hbond>
1.8640

> <Gold.PLP.Chemscore.CHOScore>
0.0000

> <Gold.PLP.Chemscore.Metal>
0.0000

> <Gold.Chemscore.Hbonds>
donor molecule, donor type, donor heavy atom, donor atom, acceptor molecule, acceptor atom, score
      P1  H   612   618       L1     9  1.00
      P1  H  2624  2635       L1    17  0.05

> <Gold.PLP.Chemscore.Internal.Correction>
   9.000000E+99

