#       Name:                CT1002167954
#       Creating user name   hitesit
#       Creation time:       Sun Apr 16 23:01:56 2023


#       File generated by GOLD software.
#

@<TRIPOS>MOLECULE
CT1002167954|ligand_prepared|mol2|1|dock4
    29    30     1
SMALL
NO_CHARGES


@<TRIPOS>ATOM
      1 C1         121.9289 152.6316 153.0887 C.3            1 RES1               0.0000
      2 C2         122.7379 152.8447 154.3845 C.ar           1 RES1               0.0000
      3 C3         122.2549 151.2208 152.6073 C.2            1 RES1               0.0000
      4 C4         120.4650 152.8392 153.4608 C.2            1 RES1               0.0000
      5 C5         122.2814 153.6292 151.9609 C.3            1 RES1               0.0000
      6 C6         124.1063 153.0929 154.3328 C.ar           1 RES1               0.0000
      7 C7         122.1303 152.7988 155.6364 C.ar           1 RES1               0.0000
      8 N8         121.2978 150.2623 152.7654 N.am           1 RES1               0.0000
      9 O9         123.3497 150.9447 152.1324 O.2            1 RES1               0.0000
     10 N10        119.6230 151.7611 153.3806 N.am           1 RES1               0.0000
     11 O11        120.0366 153.9227 153.8385 O.2            1 RES1               0.0000
     12 C12        121.3402 153.5639 150.7684 C.3            1 RES1               0.0000
     13 C13        124.8402 153.2910 155.4905 C.ar           1 RES1               0.0000
     14 C14        122.8663 152.9969 156.7930 C.ar           1 RES1               0.0000
     15 C15        119.9795 150.4748 153.0793 C.2            1 RES1               0.0000
     16 C16        124.2208 153.2436 156.7212 C.ar           1 RES1               0.0000
     17 O17        119.1742 149.5482 153.0806 O.2            1 RES1               0.0000
     18 H18        122.2621 154.6466 152.3706 H              1 RES1               0.0000
     19 H19        123.3028 153.4259 151.6161 H              1 RES1               0.0000
     20 H20        124.6115 153.1314 153.3735 H              1 RES1               0.0000
     21 H21        121.0661 152.6052 155.7171 H              1 RES1               0.0000
     22 H22        121.5892 149.2983 152.6386 H              1 RES1               0.0000
     23 H23        118.6393 151.9333 153.5623 H              1 RES1               0.0000
     24 H24        121.6323 154.2837 150.0066 H              1 RES1               0.0000
     25 H25        121.3533 152.5725 150.3204 H              1 RES1               0.0000
     26 H26        120.3188 153.7859 151.0705 H              1 RES1               0.0000
     27 H27        125.9063 153.4834 155.4287 H              1 RES1               0.0000
     28 H28        122.3747 152.9581 157.7595 H              1 RES1               0.0000
     29 H29        124.7959 153.3992 157.6280 H              1 RES1               0.0000
@<TRIPOS>BOND
    1    1    2 1     
    2    1    3 1     
    3    1    4 1     
    4    1    5 1     
    5    2    6 ar    
    6    2    7 ar    
    7    3    8 1     
    8    3    9 2     
    9    4   10 1     
   10    4   11 2     
   11    5   12 1     
   12    5   18 1     
   13    5   19 1     
   14    6   13 ar    
   15    6   20 1     
   16    7   14 ar    
   17    7   21 1     
   18    8   15 1     
   19    8   22 1     
   20   10   15 1     
   21   10   23 1     
   22   12   24 1     
   23   12   25 1     
   24   12   26 1     
   25   13   16 ar    
   26   13   27 1     
   27   14   16 ar    
   28   14   28 1     
   29   15   17 2     
   30   16   29 1     
@<TRIPOS>SUBSTRUCTURE
      1 RES1           1
@<TRIPOS>SET
DONOR_HYDROGENS      STATIC     ATOMS    <user>   **** ""
2 22 23
ATOM$RED        STATIC     ATOMS    COLORGROUP SYSTEM
2 22 23
@<TRIPOS>COMMENT
> <Gold.Version>
2022.3.0

> <Gold.Id.Protein>
unknown|7rmi_cavity_clean|pdb

> <Gold.Protein.RotatedTorsions>
[ 3787 3780 3778 3775 ] final  -58.03 input   60.01 | X-H torsion
[ 7241 7225 7224 7223 ] final  127.20 input   60.01 | X-H torsion
[ 7244 7226 7227 7228 ] final  121.77 input   59.90 | X-H torsion
[ 7275 7267 7268 7269 ] final -106.27 input   86.30 | X-H torsion
[ 8107 8100 8094 8093 ] final   59.99 input   59.99 | X-H torsion
[ 7259 7254 7253 7250 ] final -163.54 input   59.97 | X-H torsion
[ 7633 7625 7626 7627 ] final -129.83 input   88.29 | X-H torsion
[ 14310 7229 7228 7227 ] final  -23.79 input    0.00 | X-H torsion
[ 14346 7628 7627 7626 ] final  161.71 input    0.00 | X-H torsion

> <Gold.Protein.ActiveResidues>
 THR47   ARG48   ARG49   LYS280  SER281  LEU284  LEU286  CYS294  ASN295  VAL296 
 GLY306  VAL307  LEU308  VAL320  GLY324  MET325  ALA326  VAL327  TRP339  ASN340 
 ASP48   PRO49   LEU50  

> <Gold.Protein.RotatedAtoms>
  129.7134  152.1674  150.4900 H   0  0  0  0  0  0  0  0  0  0  0  0  # atno 3787 bound_to 3780
  134.3140  165.8635  171.1127 H   0  0  0  0  0  0  0  0  0  0  0  0  # atno 7241 bound_to 7225
  133.5572  164.6321  171.9238 H   0  0  0  0  0  0  0  0  0  0  0  0  # atno 7242 bound_to 7225
  134.5341  164.2943  170.6280 H   0  0  0  0  0  0  0  0  0  0  0  0  # atno 7243 bound_to 7225
  123.7527  133.4271   86.3456 H   0  0  0  0  0  0  0  0  0  0  0  0  # atno 7244 bound_to 7226
  125.2502  162.6712  167.4722 H   0  0  0  0  0  0  0  0  0  0  0  0  # atno 7259 bound_to 7254
  123.3653  157.9195  168.0237 H   0  0  0  0  0  0  0  0  0  0  0  0  # atno 7275 bound_to 7267
  122.8371  123.4739  129.5306 H   0  0  0  0  0  0  0  0  0  0  0  0  # atno 7633 bound_to 7625
  127.5370  161.3050  155.7080 H   0  0  0  0  0  0  0  0  0  0  0  0  # atno 8107 bound_to 8100
  129.6762  151.3205  149.1011 LP  0  0  0  0  0  0  0  0  0  0  0  0  # atno 14301 bound_to 3780
  128.5546  152.4719  149.3890 LP  0  0  0  0  0  0  0  0  0  0  0  0  # atno 14302 bound_to 3780
  124.0779  134.9883   87.0700 LP  0  0  0  0  0  0  0  0  0  0  0  0  # atno 14309 bound_to 7226
  123.7411  134.4810   89.1387 LP  0  0  0  0  0  0  0  0  0  0  0  0  # atno 14310 bound_to 7229
  122.6880  135.2051   90.3077 LP  0  0  0  0  0  0  0  0  0  0  0  0  # atno 14311 bound_to 7229
  126.1565  160.7598  155.1919 LP  0  0  0  0  0  0  0  0  0  0  0  0  # atno 14336 bound_to 8100
  125.3681  161.4832  168.5786 LP  0  0  0  0  0  0  0  0  0  0  0  0  # atno 14341 bound_to 7254
  126.6164  161.7921  167.5723 LP  0  0  0  0  0  0  0  0  0  0  0  0  # atno 14342 bound_to 7254
  123.1654  125.0952  130.0899 LP  0  0  0  0  0  0  0  0  0  0  0  0  # atno 14345 bound_to 7625
  124.0624  123.6367  134.3758 LP  0  0  0  0  0  0  0  0  0  0  0  0  # atno 14346 bound_to 7628
  123.6352  122.3936  133.2479 LP  0  0  0  0  0  0  0  0  0  0  0  0  # atno 14347 bound_to 7628

> <Gold.Score>
     Fitness  S(hb_ext) S(vdw_ext)  S(hb_int)    S(int)      intcor
     36.41       0.00      27.35       0.00      -1.20      -0.76

> <Gold.Goldscore.Fitness>
36.4070

> <Gold.Goldscore.Internal.Vdw>
-1.4615

> <Gold.Goldscore.Internal.Torsion>
-0.4940

> <Gold.Goldscore.External.Vdw>
27.3483

> <Gold.Goldscore.Internal.HBond>
0.0000

> <Gold.Goldscore.External.HBond>
0.0000

> <Gold.Goldscore.Internal.Correction>
-0.7585

> <Gold.Goldscore.Internal.Vdw.Weighted>
-1.4615

> <Gold.Goldscore.Internal.Torsion.Weighted>
-0.4940

> <Gold.Goldscore.External.Vdw.Weighted>
37.6039

> <Gold.Goldscore.Internal.HBond.Weighted>
0.0000

> <Gold.Goldscore.External.HBond.Weighted>
0.0000

> <Gold.Goldscore.Internal.Correction.Weighted>
-0.7585

> <Gold.Rescore>
     Score     S(PLP)   S(hbond)     S(cho)   S(metal)  DE(clash)   DE(tors)     intcor
     26.31     -28.04       0.00       0.00       0.00       0.91       0.41       ----

> <Gold.PLP.Fitness>
26.3116

> <Gold.PLP.PLP>
-28.0370

> <Gold.PLP.part.hbond>
-2.0000

> <Gold.PLP.part.metal>
0.0000

> <Gold.PLP.part.buried>
13.5214

> <Gold.PLP.part.nonpolar>
-40.6922

> <Gold.PLP.part.repulsive>
0.4207

> <Gold.PLP.ligand.clash>
0.9116

> <Gold.PLP.ligand.torsion>
0.4069

> <Gold.PLP.Chemscore.Hbond>
0.0000

> <Gold.PLP.Chemscore.CHOScore>
0.0000

> <Gold.PLP.Chemscore.Metal>
0.0000

> <Gold.PLP.Chemscore.Internal.Correction>
   9.000000E+99

#       Name:                CT1002167954
#       Creating user name   hitesit
#       Creation time:       Sun Apr 16 23:02:31 2023


#       File generated by GOLD software.
#

@<TRIPOS>MOLECULE
CT1002167954|ligand_prepared|mol2|1|dock5
    29    30     1
SMALL
NO_CHARGES


@<TRIPOS>ATOM
      1 C1         133.0488 144.6232 126.1125 C.3            1 RES1               0.0000
      2 C2         133.2472 143.8899 127.4547 C.ar           1 RES1               0.0000
      3 C3         131.6908 144.1782 125.5777 C.2            1 RES1               0.0000
      4 C4         133.1372 146.1133 126.4233 C.2            1 RES1               0.0000
      5 C5         134.1263 144.2913 125.0540 C.3            1 RES1               0.0000
      6 C6         132.6034 144.3331 128.6062 C.ar           1 RES1               0.0000
      7 C7         134.0672 142.7693 127.5565 C.ar           1 RES1               0.0000
      8 N8         130.6628 145.0722 125.6415 N.am           1 RES1               0.0000
      9 O9         131.5148 143.0467 125.1430 O.2            1 RES1               0.0000
     10 N10        132.0104 146.8735 126.2491 N.am           1 RES1               0.0000
     11 O11        134.1678 146.6329 126.8335 O.2            1 RES1               0.0000
     12 C12        134.0995 145.2102 123.8428 C.3            1 RES1               0.0000
     13 C13        132.7709 143.6780 129.8150 C.ar           1 RES1               0.0000
     14 C14        134.2335 142.1158 128.7663 C.ar           1 RES1               0.0000
     15 C15        130.7690 146.4148 125.9016 C.2            1 RES1               0.0000
     16 C16        133.5856 142.5688 129.8958 C.ar           1 RES1               0.0000
     17 O17        129.7913 147.1526 125.8180 O.2            1 RES1               0.0000
     18 H18        135.1152 144.3560 125.5245 H              1 RES1               0.0000
     19 H19        133.9828 143.2576 124.7161 H              1 RES1               0.0000
     20 H20        131.9602 145.2057 128.5625 H              1 RES1               0.0000
     21 H21        134.5877 142.3957 126.6812 H              1 RES1               0.0000
     22 H22        129.7288 144.7087 125.4811 H              1 RES1               0.0000
     23 H23        132.1060 147.8739 126.3914 H              1 RES1               0.0000
     24 H24        134.8752 144.9338 123.1317 H              1 RES1               0.0000
     25 H25        133.1387 145.1521 123.3357 H              1 RES1               0.0000
     26 H26        134.2644 146.2440 124.1393 H              1 RES1               0.0000
     27 H27        132.2598 144.0393 130.7012 H              1 RES1               0.0000
     28 H28        134.8761 141.2436 128.8254 H              1 RES1               0.0000
     29 H29        133.7163 142.0555 130.8427 H              1 RES1               0.0000
@<TRIPOS>BOND
    1    1    2 1     
    2    1    3 1     
    3    1    4 1     
    4    1    5 1     
    5    2    6 ar    
    6    2    7 ar    
    7    3    8 1     
    8    3    9 2     
    9    4   10 1     
   10    4   11 2     
   11    5   12 1     
   12    5   18 1     
   13    5   19 1     
   14    6   13 ar    
   15    6   20 1     
   16    7   14 ar    
   17    7   21 1     
   18    8   15 1     
   19    8   22 1     
   20   10   15 1     
   21   10   23 1     
   22   12   24 1     
   23   12   25 1     
   24   12   26 1     
   25   13   16 ar    
   26   13   27 1     
   27   14   16 ar    
   28   14   28 1     
   29   15   17 2     
   30   16   29 1     
@<TRIPOS>SUBSTRUCTURE
      1 RES1           1
@<TRIPOS>SET
DONOR_HYDROGENS      STATIC     ATOMS    <user>   **** ""
2 22 23
ATOM$RED        STATIC     ATOMS    COLORGROUP SYSTEM
2 22 23
@<TRIPOS>COMMENT
> <Gold.Version>
2022.3.0

> <Gold.Id.Protein>
unknown|7rmi_cavity_clean|pdb

> <Gold.Protein.RotatedTorsions>
[ 3787 3780 3778 3775 ] final  120.87 input   60.01 | X-H torsion
[ 7241 7225 7224 7223 ] final  -19.06 input   60.01 | X-H torsion
[ 7244 7226 7227 7228 ] final   45.70 input   59.90 | X-H torsion
[ 7275 7267 7268 7269 ] final -144.83 input   86.30 | X-H torsion
[ 8107 8100 8094 8093 ] final   59.99 input   59.99 | X-H torsion
[ 7259 7254 7253 7250 ] final  158.33 input   59.97 | X-H torsion
[ 7633 7625 7626 7627 ] final  166.48 input   88.29 | X-H torsion
[ 14310 7229 7228 7227 ] final   34.67 input    0.00 | X-H torsion
[ 14346 7628 7627 7626 ] final  -83.25 input    0.00 | X-H torsion

> <Gold.Protein.ActiveResidues>
 THR47   ARG48   ARG49   LYS280  SER281  LEU284  LEU286  CYS294  ASN295  VAL296 
 GLY306  VAL307  LEU308  VAL320  GLY324  MET325  ALA326  VAL327  TRP339  ASN340 
 ASP48   PRO49   LEU50  

> <Gold.Protein.RotatedAtoms>
  128.9082  151.8222  148.8353 H   0  0  0  0  0  0  0  0  0  0  0  0  # atno 3787 bound_to 3780
  134.2991  164.0455  170.8966 H   0  0  0  0  0  0  0  0  0  0  0  0  # atno 7241 bound_to 7225
  134.5452  165.6813  170.7932 H   0  0  0  0  0  0  0  0  0  0  0  0  # atno 7242 bound_to 7225
  133.5607  165.0639  171.9753 H   0  0  0  0  0  0  0  0  0  0  0  0  # atno 7243 bound_to 7225
  124.0255  133.6465   87.3873 H   0  0  0  0  0  0  0  0  0  0  0  0  # atno 7244 bound_to 7226
  124.9136  162.4153  167.9145 H   0  0  0  0  0  0  0  0  0  0  0  0  # atno 7259 bound_to 7254
  123.2632  158.2984  167.5864 H   0  0  0  0  0  0  0  0  0  0  0  0  # atno 7275 bound_to 7267
  123.4930  124.0046  129.1393 H   0  0  0  0  0  0  0  0  0  0  0  0  # atno 7633 bound_to 7625
  127.5370  161.3050  155.7080 H   0  0  0  0  0  0  0  0  0  0  0  0  # atno 8107 bound_to 8100
  128.9667  152.6485  150.2358 LP  0  0  0  0  0  0  0  0  0  0  0  0  # atno 14301 bound_to 3780
  130.0749  151.4914  149.9202 LP  0  0  0  0  0  0  0  0  0  0  0  0  # atno 14302 bound_to 3780
  123.8150  134.7768   86.0660 LP  0  0  0  0  0  0  0  0  0  0  0  0  # atno 14309 bound_to 7226
  123.5863  135.3115   89.0968 LP  0  0  0  0  0  0  0  0  0  0  0  0  # atno 14310 bound_to 7229
  122.8428  134.3746   90.3496 LP  0  0  0  0  0  0  0  0  0  0  0  0  # atno 14311 bound_to 7229
  126.1565  160.7598  155.1919 LP  0  0  0  0  0  0  0  0  0  0  0  0  # atno 14336 bound_to 8100
  125.9367  161.2755  168.4653 LP  0  0  0  0  0  0  0  0  0  0  0  0  # atno 14341 bound_to 7254
  126.3867  162.2573  167.2405 LP  0  0  0  0  0  0  0  0  0  0  0  0  # atno 14342 bound_to 7254
  122.5218  124.5744  130.4739 LP  0  0  0  0  0  0  0  0  0  0  0  0  # atno 14345 bound_to 7625
  123.0080  122.9786  133.6077 LP  0  0  0  0  0  0  0  0  0  0  0  0  # atno 14346 bound_to 7628
  124.6896  123.0517  134.0159 LP  0  0  0  0  0  0  0  0  0  0  0  0  # atno 14347 bound_to 7628

> <Gold.Score>
     Fitness  S(hb_ext) S(vdw_ext)  S(hb_int)    S(int)      intcor
     31.86       0.00      23.28       0.00      -0.15      -0.76

> <Gold.Goldscore.Fitness>
31.8565

> <Gold.Goldscore.Internal.Vdw>
-0.3332

> <Gold.Goldscore.Internal.Torsion>
-0.5751

> <Gold.Goldscore.External.Vdw>
23.2772

> <Gold.Goldscore.Internal.HBond>
0.0000

> <Gold.Goldscore.External.HBond>
0.0000

> <Gold.Goldscore.Internal.Correction>
-0.7585

> <Gold.Goldscore.Internal.Vdw.Weighted>
-0.3332

> <Gold.Goldscore.Internal.Torsion.Weighted>
-0.5751

> <Gold.Goldscore.External.Vdw.Weighted>
32.0062

> <Gold.Goldscore.Internal.HBond.Weighted>
0.0000

> <Gold.Goldscore.External.HBond.Weighted>
0.0000

> <Gold.Goldscore.Internal.Correction.Weighted>
-0.7585

> <Gold.Rescore>
     Score     S(PLP)   S(hbond)     S(cho)   S(metal)  DE(clash)   DE(tors)     intcor
     30.99     -31.22       0.00       0.00       0.00       0.00       0.12       ----

> <Gold.PLP.Fitness>
30.9856

> <Gold.PLP.PLP>
-31.2193

> <Gold.PLP.part.hbond>
0.0000

> <Gold.PLP.part.metal>
0.0000

> <Gold.PLP.part.buried>
-0.2973

> <Gold.PLP.part.nonpolar>
-33.0882

> <Gold.PLP.part.repulsive>
2.0885

> <Gold.PLP.ligand.clash>
0.0000

> <Gold.PLP.ligand.torsion>
0.1168

> <Gold.PLP.Chemscore.Hbond>
0.0000

> <Gold.PLP.Chemscore.CHOScore>
0.0000

> <Gold.PLP.Chemscore.Metal>
0.0000

> <Gold.PLP.Chemscore.Internal.Correction>
   9.000000E+99

#       Name:                CT1002167954
#       Creating user name   hitesit
#       Creation time:       Sun Apr 16 23:05:27 2023


#       File generated by GOLD software.
#

@<TRIPOS>MOLECULE
CT1002167954|ligand_prepared|mol2|1|dock10
    29    30     1
SMALL
NO_CHARGES


@<TRIPOS>ATOM
      1 C1         132.7989 144.4829 126.3262 C.3            1 RES1               0.0000
      2 C2         133.2755 143.7805 127.6139 C.ar           1 RES1               0.0000
      3 C3         131.3554 144.0402 126.1059 C.2            1 RES1               0.0000
      4 C4         132.9602 145.9791 126.5716 C.2            1 RES1               0.0000
      5 C5         133.6231 144.1131 125.0710 C.3            1 RES1               0.0000
      6 C6         132.9969 144.3263 128.8634 C.ar           1 RES1               0.0000
      7 C7         133.9912 142.5871 127.5685 C.ar           1 RES1               0.0000
      8 N8         130.3700 144.9469 126.3643 N.am           1 RES1               0.0000
      9 O9         131.0840 142.9004 125.7488 O.2            1 RES1               0.0000
     10 N10        131.8266 146.7473 126.6222 N.am           1 RES1               0.0000
     11 O11        134.0576 146.4969 126.7382 O.2            1 RES1               0.0000
     12 C12        133.3266 144.9878 123.8631 C.3            1 RES1               0.0000
     13 C13        133.4160 143.7001 130.0256 C.ar           1 RES1               0.0000
     14 C14        134.4096 141.9627 128.7320 C.ar           1 RES1               0.0000
     15 C15        130.5370 146.2943 126.5603 C.2            1 RES1               0.0000
     16 C16        134.1221 142.5179 129.9607 C.ar           1 RES1               0.0000
     17 O17        129.5683 147.0407 126.6680 O.2            1 RES1               0.0000
     18 H18        134.6900 144.1945 125.3126 H              1 RES1               0.0000
     19 H19        133.4175 143.0679 124.8089 H              1 RES1               0.0000
     20 H20        132.4445 145.2573 128.9342 H              1 RES1               0.0000
     21 H21        134.2297 142.1326 126.6129 H              1 RES1               0.0000
     22 H22        129.4211 144.5901 126.4168 H              1 RES1               0.0000
     23 H23        131.9562 147.7498 126.7144 H              1 RES1               0.0000
     24 H24        133.9313 144.6860 123.0105 H              1 RES1               0.0000
     25 H25        132.2790 144.9117 123.5795 H              1 RES1               0.0000
     26 H26        133.5440 146.0316 124.0802 H              1 RES1               0.0000
     27 H27        133.1884 144.1419 130.9901 H              1 RES1               0.0000
     28 H28        134.9656 141.0327 128.6761 H              1 RES1               0.0000
     29 H29        134.4500 142.0274 130.8713 H              1 RES1               0.0000
@<TRIPOS>BOND
    1    1    2 1     
    2    1    3 1     
    3    1    4 1     
    4    1    5 1     
    5    2    6 ar    
    6    2    7 ar    
    7    3    8 1     
    8    3    9 2     
    9    4   10 1     
   10    4   11 2     
   11    5   12 1     
   12    5   18 1     
   13    5   19 1     
   14    6   13 ar    
   15    6   20 1     
   16    7   14 ar    
   17    7   21 1     
   18    8   15 1     
   19    8   22 1     
   20   10   15 1     
   21   10   23 1     
   22   12   24 1     
   23   12   25 1     
   24   12   26 1     
   25   13   16 ar    
   26   13   27 1     
   27   14   16 ar    
   28   14   28 1     
   29   15   17 2     
   30   16   29 1     
@<TRIPOS>SUBSTRUCTURE
      1 RES1           1
@<TRIPOS>SET
DONOR_HYDROGENS      STATIC     ATOMS    <user>   **** ""
2 22 23
ATOM$RED        STATIC     ATOMS    COLORGROUP SYSTEM
2 22 23
@<TRIPOS>COMMENT
> <Gold.Version>
2022.3.0

> <Gold.Id.Protein>
unknown|7rmi_cavity_clean|pdb

> <Gold.Protein.RotatedTorsions>
[ 3787 3780 3778 3775 ] final  135.14 input   60.01 | X-H torsion
[ 7241 7225 7224 7223 ] final  -96.04 input   60.01 | X-H torsion
[ 7244 7226 7227 7228 ] final   62.87 input   59.90 | X-H torsion
[ 7275 7267 7268 7269 ] final   29.82 input   86.30 | X-H torsion
[ 8107 8100 8094 8093 ] final   59.99 input   59.99 | X-H torsion
[ 7259 7254 7253 7250 ] final   92.94 input   59.97 | X-H torsion
[ 7633 7625 7626 7627 ] final -150.96 input   88.29 | X-H torsion
[ 14310 7229 7228 7227 ] final  156.32 input    0.00 | X-H torsion
[ 14346 7628 7627 7626 ] final  -41.85 input    0.00 | X-H torsion

> <Gold.Protein.ActiveResidues>
 THR47   ARG48   ARG49   LYS280  SER281  LEU284  LEU286  CYS294  ASN295  VAL296 
 GLY306  VAL307  LEU308  VAL320  GLY324  MET325  ALA326  VAL327  TRP339  ASN340 
 ASP48   PRO49   LEU50  

> <Gold.Protein.RotatedAtoms>
  129.0774  151.6638  148.8161 H   0  0  0  0  0  0  0  0  0  0  0  0  # atno 3787 bound_to 3780
  133.6183  164.3840  171.8130 H   0  0  0  0  0  0  0  0  0  0  0  0  # atno 7241 bound_to 7225
  134.6431  164.5264  170.5182 H   0  0  0  0  0  0  0  0  0  0  0  0  # atno 7242 bound_to 7225
  134.1439  165.8806  171.3334 H   0  0  0  0  0  0  0  0  0  0  0  0  # atno 7243 bound_to 7225
  123.9650  133.4723   87.1952 H   0  0  0  0  0  0  0  0  0  0  0  0  # atno 7244 bound_to 7226
  125.1638  161.6521  168.5300 H   0  0  0  0  0  0  0  0  0  0  0  0  # atno 7259 bound_to 7254
  125.0023  158.0539  167.8615 H   0  0  0  0  0  0  0  0  0  0  0  0  # atno 7275 bound_to 7267
  123.0750  123.5591  129.3290 H   0  0  0  0  0  0  0  0  0  0  0  0  # atno 7633 bound_to 7625
  127.5370  161.3050  155.7080 H   0  0  0  0  0  0  0  0  0  0  0  0  # atno 8107 bound_to 8100
  128.8107  152.6746  150.0631 LP  0  0  0  0  0  0  0  0  0  0  0  0  # atno 14301 bound_to 3780
  130.0605  151.6247  150.1122 LP  0  0  0  0  0  0  0  0  0  0  0  0  # atno 14302 bound_to 3780
  123.8734  134.9447   86.2512 LP  0  0  0  0  0  0  0  0  0  0  0  0  # atno 14309 bound_to 7226
  122.6877  135.2036   90.3084 LP  0  0  0  0  0  0  0  0  0  0  0  0  # atno 14310 bound_to 7229
  123.7414  134.4825   89.1380 LP  0  0  0  0  0  0  0  0  0  0  0  0  # atno 14311 bound_to 7229
  126.1565  160.7598  155.1919 LP  0  0  0  0  0  0  0  0  0  0  0  0  # atno 14336 bound_to 8100
  126.6006  161.6049  167.7666 LP  0  0  0  0  0  0  0  0  0  0  0  0  # atno 14341 bound_to 7254
  125.4709  162.6961  167.3197 LP  0  0  0  0  0  0  0  0  0  0  0  0  # atno 14342 bound_to 7254
  122.9320  125.0115  130.2877 LP  0  0  0  0  0  0  0  0  0  0  0  0  # atno 14345 bound_to 7625
  123.3220  122.5454  133.3101 LP  0  0  0  0  0  0  0  0  0  0  0  0  # atno 14346 bound_to 7628
  124.3757  123.4850  134.3135 LP  0  0  0  0  0  0  0  0  0  0  0  0  # atno 14347 bound_to 7628

> <Gold.Score>
     Fitness  S(hb_ext) S(vdw_ext)  S(hb_int)    S(int)      intcor
     31.56       0.00      23.09       0.00      -0.19      -0.76

> <Gold.Goldscore.Fitness>
31.5599

> <Gold.Goldscore.Internal.Vdw>
-0.4019

> <Gold.Goldscore.Internal.Torsion>
-0.5436

> <Gold.Goldscore.External.Vdw>
23.0886

> <Gold.Goldscore.Internal.HBond>
0.0000

> <Gold.Goldscore.External.HBond>
0.0000

> <Gold.Goldscore.Internal.Correction>
-0.7585

> <Gold.Goldscore.Internal.Vdw.Weighted>
-0.4019

> <Gold.Goldscore.Internal.Torsion.Weighted>
-0.5436

> <Gold.Goldscore.External.Vdw.Weighted>
31.7469

> <Gold.Goldscore.Internal.HBond.Weighted>
0.0000

> <Gold.Goldscore.External.HBond.Weighted>
0.0000

> <Gold.Goldscore.Internal.Correction.Weighted>
-0.7585

> <Gold.Rescore>
     Score     S(PLP)   S(hbond)     S(cho)   S(metal)  DE(clash)   DE(tors)     intcor
     28.46     -30.57       0.00       0.00       0.00       0.00       1.05       ----

> <Gold.PLP.Fitness>
28.4626

> <Gold.PLP.PLP>
-30.5671

> <Gold.PLP.part.hbond>
-0.8273

> <Gold.PLP.part.metal>
0.0000

> <Gold.PLP.part.buried>
2.0996

> <Gold.PLP.part.nonpolar>
-32.9888

> <Gold.PLP.part.repulsive>
0.9731

> <Gold.PLP.ligand.clash>
0.0000

> <Gold.PLP.ligand.torsion>
1.0523

> <Gold.PLP.Chemscore.Hbond>
0.0000

> <Gold.PLP.Chemscore.CHOScore>
0.0000

> <Gold.PLP.Chemscore.Metal>
0.0000

> <Gold.PLP.Chemscore.Internal.Correction>
   9.000000E+99

#       Name:                CT1002167954
#       Creating user name   hitesit
#       Creation time:       Sun Apr 16 23:00:47 2023


#       File generated by GOLD software.
#

@<TRIPOS>MOLECULE
CT1002167954|ligand_prepared|mol2|1|dock2
    29    30     1
SMALL
NO_CHARGES


@<TRIPOS>ATOM
      1 C1         132.5886 144.9699 126.2337 C.3            1 RES1               0.0000
      2 C2         132.9854 144.0631 127.4165 C.ar           1 RES1               0.0000
      3 C3         133.7547 145.9308 126.0206 C.2            1 RES1               0.0000
      4 C4         132.3243 144.0411 125.0539 C.2            1 RES1               0.0000
      5 C5         131.3080 145.7997 126.4847 C.3            1 RES1               0.0000
      6 C6         133.6725 142.8729 127.1975 C.ar           1 RES1               0.0000
      7 C7         132.6740 144.4040 128.7301 C.ar           1 RES1               0.0000
      8 N8         134.5560 145.7214 124.9372 N.am           1 RES1               0.0000
      9 O9         133.9910 146.8345 126.8130 O.2            1 RES1               0.0000
     10 N10        133.1645 144.1194 123.9742 N.am           1 RES1               0.0000
     11 O11        131.4061 143.2304 125.0564 O.2            1 RES1               0.0000
     12 C12        130.7521 146.4627 125.2343 C.3            1 RES1               0.0000
     13 C13        134.0379 142.0546 128.2535 C.ar           1 RES1               0.0000
     14 C14        133.0402 143.5841 129.7847 C.ar           1 RES1               0.0000
     15 C15        134.2867 144.8960 123.8751 C.2            1 RES1               0.0000
     16 C16        133.7224 142.4098 129.5477 C.ar           1 RES1               0.0000
     17 O17        135.0229 144.8714 122.8930 O.2            1 RES1               0.0000
     18 H18        130.5384 145.1421 126.9076 H              1 RES1               0.0000
     19 H19        131.5302 146.5763 127.2270 H              1 RES1               0.0000
     20 H20        133.9272 142.5756 126.1857 H              1 RES1               0.0000
     21 H21        132.1369 145.3227 128.9402 H              1 RES1               0.0000
     22 H22        135.4370 146.2251 124.9145 H              1 RES1               0.0000
     23 H23        132.9317 143.5459 123.1698 H              1 RES1               0.0000
     24 H24        129.8544 147.0319 125.4662 H              1 RES1               0.0000
     25 H25        131.4824 147.1432 124.8014 H              1 RES1               0.0000
     26 H26        130.4965 145.7175 124.4838 H              1 RES1               0.0000
     27 H27        134.5735 141.1307 128.0616 H              1 RES1               0.0000
     28 H28        132.7893 143.8673 130.8016 H              1 RES1               0.0000
     29 H29        134.0091 141.7688 130.3748 H              1 RES1               0.0000
@<TRIPOS>BOND
    1    1    2 1     
    2    1    3 1     
    3    1    4 1     
    4    1    5 1     
    5    2    6 ar    
    6    2    7 ar    
    7    3    8 1     
    8    3    9 2     
    9    4   10 1     
   10    4   11 2     
   11    5   12 1     
   12    5   18 1     
   13    5   19 1     
   14    6   13 ar    
   15    6   20 1     
   16    7   14 ar    
   17    7   21 1     
   18    8   15 1     
   19    8   22 1     
   20   10   15 1     
   21   10   23 1     
   22   12   24 1     
   23   12   25 1     
   24   12   26 1     
   25   13   16 ar    
   26   13   27 1     
   27   14   16 ar    
   28   14   28 1     
   29   15   17 2     
   30   16   29 1     
@<TRIPOS>SUBSTRUCTURE
      1 RES1           1
@<TRIPOS>SET
DONOR_HYDROGENS      STATIC     ATOMS    <user>   **** ""
2 22 23
ATOM$RED        STATIC     ATOMS    COLORGROUP SYSTEM
2 22 23
@<TRIPOS>COMMENT
> <Gold.Version>
2022.3.0

> <Gold.Id.Protein>
unknown|7rmi_cavity_clean|pdb

> <Gold.Protein.RotatedTorsions>
[ 3787 3780 3778 3775 ] final   54.56 input   60.01 | X-H torsion
[ 7241 7225 7224 7223 ] final  -94.25 input   60.01 | X-H torsion
[ 7244 7226 7227 7228 ] final -142.84 input   59.90 | X-H torsion
[ 7275 7267 7268 7269 ] final   -5.89 input   86.30 | X-H torsion
[ 8107 8100 8094 8093 ] final -120.01 input   59.99 | X-H torsion
[ 7259 7254 7253 7250 ] final   65.87 input   59.97 | X-H torsion
[ 7633 7625 7626 7627 ] final    2.16 input   88.29 | X-H torsion
[ 14310 7229 7228 7227 ] final  -65.88 input    0.00 | X-H torsion
[ 14346 7628 7627 7626 ] final  164.20 input    0.00 | X-H torsion

> <Gold.Protein.ActiveResidues>
 THR47   ARG48   ARG49   LYS280  SER281  LEU284  LEU286  CYS294  ASN295  VAL296 
 GLY306  VAL307  LEU308  VAL320  GLY324  MET325  ALA326  VAL327  TRP339  ASN340 
 ASP48   PRO49   LEU50  

> <Gold.Protein.RotatedAtoms>
  128.5709  152.5292  149.4949 H   0  0  0  0  0  0  0  0  0  0  0  0  # atno 3787 bound_to 3780
  133.6276  164.3598  171.7981 H   0  0  0  0  0  0  0  0  0  0  0  0  # atno 7241 bound_to 7225
  134.6523  164.5535  170.5099 H   0  0  0  0  0  0  0  0  0  0  0  0  # atno 7242 bound_to 7225
  134.1254  165.8776  171.3567 H   0  0  0  0  0  0  0  0  0  0  0  0  # atno 7243 bound_to 7225
  123.7582  134.6928   85.9740 H   0  0  0  0  0  0  0  0  0  0  0  0  # atno 7244 bound_to 7226
  125.5223  161.4037  168.5749 H   0  0  0  0  0  0  0  0  0  0  0  0  # atno 7259 bound_to 7254
  124.7094  157.7533  168.2100 H   0  0  0  0  0  0  0  0  0  0  0  0  # atno 7275 bound_to 7267
  122.6458  124.7778  130.4561 H   0  0  0  0  0  0  0  0  0  0  0  0  # atno 7633 bound_to 7625
  126.2295  159.9660  155.6453 H   0  0  0  0  0  0  0  0  0  0  0  0  # atno 8107 bound_to 8100
  129.7944  152.0793  150.4688 LP  0  0  0  0  0  0  0  0  0  0  0  0  # atno 14301 bound_to 3780
  129.5868  151.3488  149.0231 LP  0  0  0  0  0  0  0  0  0  0  0  0  # atno 14302 bound_to 3780
  124.0726  133.7685   87.4281 LP  0  0  0  0  0  0  0  0  0  0  0  0  # atno 14309 bound_to 7226
  123.5296  134.0570   89.5417 LP  0  0  0  0  0  0  0  0  0  0  0  0  # atno 14310 bound_to 7229
  122.8995  135.6291   89.9047 LP  0  0  0  0  0  0  0  0  0  0  0  0  # atno 14311 bound_to 7229
  127.4186  160.6879  156.3760 LP  0  0  0  0  0  0  0  0  0  0  0  0  # atno 14336 bound_to 8100
  126.5886  161.9217  167.4596 LP  0  0  0  0  0  0  0  0  0  0  0  0  # atno 14341 bound_to 7254
  125.1220  162.6293  167.5816 LP  0  0  0  0  0  0  0  0  0  0  0  0  # atno 14342 bound_to 7254
  123.3531  123.8159  129.1819 LP  0  0  0  0  0  0  0  0  0  0  0  0  # atno 14345 bound_to 7625
  124.0262  123.6470  134.3769 LP  0  0  0  0  0  0  0  0  0  0  0  0  # atno 14346 bound_to 7628
  123.6714  122.3833  133.2467 LP  0  0  0  0  0  0  0  0  0  0  0  0  # atno 14347 bound_to 7628

> <Gold.Score>
     Fitness  S(hb_ext) S(vdw_ext)  S(hb_int)    S(int)      intcor
     31.07       0.00      22.90       0.00      -0.42      -0.77

> <Gold.Goldscore.Fitness>
31.0665

> <Gold.Goldscore.Internal.Vdw>
-0.5922

> <Gold.Goldscore.Internal.Torsion>
-0.5964

> <Gold.Goldscore.External.Vdw>
22.8993

> <Gold.Goldscore.Internal.HBond>
0.0000

> <Gold.Goldscore.External.HBond>
0.0000

> <Gold.Goldscore.Internal.Correction>
-0.7686

> <Gold.Goldscore.Internal.Vdw.Weighted>
-0.5922

> <Gold.Goldscore.Internal.Torsion.Weighted>
-0.5964

> <Gold.Goldscore.External.Vdw.Weighted>
31.4865

> <Gold.Goldscore.Internal.HBond.Weighted>
0.0000

> <Gold.Goldscore.External.HBond.Weighted>
0.0000

> <Gold.Goldscore.Internal.Correction.Weighted>
-0.7686

> <Gold.Rescore>
     Score     S(PLP)   S(hbond)     S(cho)   S(metal)  DE(clash)   DE(tors)     intcor
     29.45     -31.86       0.00       0.00       0.00       0.87       0.77       ----

> <Gold.PLP.Fitness>
29.4474

> <Gold.PLP.PLP>
-31.8589

> <Gold.PLP.part.hbond>
0.0000

> <Gold.PLP.part.metal>
0.0000

> <Gold.PLP.part.buried>
-0.1708

> <Gold.PLP.part.nonpolar>
-32.2281

> <Gold.PLP.part.repulsive>
0.5671

> <Gold.PLP.ligand.clash>
0.8729

> <Gold.PLP.ligand.torsion>
0.7693

> <Gold.PLP.Chemscore.Hbond>
0.0000

> <Gold.PLP.Chemscore.CHOScore>
0.0000

> <Gold.PLP.Chemscore.Metal>
0.0000

> <Gold.PLP.Chemscore.Internal.Correction>
   9.000000E+99

#       Name:                CT1002167954
#       Creating user name   hitesit
#       Creation time:       Sun Apr 16 23:00:10 2023


#       File generated by GOLD software.
#

@<TRIPOS>MOLECULE
CT1002167954|ligand_prepared|mol2|1|dock1
    29    30     1
SMALL
NO_CHARGES


@<TRIPOS>ATOM
      1 C1         131.7255 144.8064 126.7738 C.3            1 RES1               0.0000
      2 C2         132.4978 144.1052 127.9099 C.ar           1 RES1               0.0000
      3 C3         132.4297 146.1390 126.5360 C.2            1 RES1               0.0000
      4 C4         131.7683 143.8585 125.5805 C.2            1 RES1               0.0000
      5 C5         130.2419 145.0876 127.1077 C.3            1 RES1               0.0000
      6 C6         132.2634 144.4427 129.2395 C.ar           1 RES1               0.0000
      7 C7         133.4440 143.1189 127.6445 C.ar           1 RES1               0.0000
      8 N8         133.1915 146.2591 125.4112 N.am           1 RES1               0.0000
      9 O9         132.3498 147.0570 127.3430 O.2            1 RES1               0.0000
     10 N10        132.4576 144.2596 124.4662 N.am           1 RES1               0.0000
     11 O11        131.2253 142.7607 125.6011 O.2            1 RES1               0.0000
     12 C12        129.4177 145.5330 125.9100 C.3            1 RES1               0.0000
     13 C13        132.9479 143.8148 130.2669 C.ar           1 RES1               0.0000
     14 C14        134.1277 142.4924 128.6735 C.ar           1 RES1               0.0000
     15 C15        133.1970 145.4039 124.3387 C.2            1 RES1               0.0000
     16 C16        133.8801 142.8391 129.9847 C.ar           1 RES1               0.0000
     17 O17        133.8343 145.6694 123.3236 O.2            1 RES1               0.0000
     18 H18        129.7951 144.1767 127.5248 H              1 RES1               0.0000
     19 H19        130.1949 145.8672 127.8781 H              1 RES1               0.0000
     20 H20        131.5353 145.2099 129.4808 H              1 RES1               0.0000
     21 H21        133.6559 142.8308 126.6205 H              1 RES1               0.0000
     22 H22        133.8148 147.0588 125.3630 H              1 RES1               0.0000
     23 H23        132.4156 143.6486 123.6567 H              1 RES1               0.0000
     24 H24        128.3851 145.7168 126.1992 H              1 RES1               0.0000
     25 H25        129.8191 146.4507 125.4852 H              1 RES1               0.0000
     26 H26        129.4216 144.7702 125.1340 H              1 RES1               0.0000
     27 H27        132.7504 144.0922 131.2971 H              1 RES1               0.0000
     28 H28        134.8609 141.7255 128.4467 H              1 RES1               0.0000
     29 H29        134.4159 142.3471 130.7897 H              1 RES1               0.0000
@<TRIPOS>BOND
    1    1    2 1     
    2    1    3 1     
    3    1    4 1     
    4    1    5 1     
    5    2    6 ar    
    6    2    7 ar    
    7    3    8 1     
    8    3    9 2     
    9    4   10 1     
   10    4   11 2     
   11    5   12 1     
   12    5   18 1     
   13    5   19 1     
   14    6   13 ar    
   15    6   20 1     
   16    7   14 ar    
   17    7   21 1     
   18    8   15 1     
   19    8   22 1     
   20   10   15 1     
   21   10   23 1     
   22   12   24 1     
   23   12   25 1     
   24   12   26 1     
   25   13   16 ar    
   26   13   27 1     
   27   14   16 ar    
   28   14   28 1     
   29   15   17 2     
   30   16   29 1     
@<TRIPOS>SUBSTRUCTURE
      1 RES1           1
@<TRIPOS>SET
DONOR_HYDROGENS      STATIC     ATOMS    <user>   **** ""
2 22 23
ATOM$RED        STATIC     ATOMS    COLORGROUP SYSTEM
2 22 23
@<TRIPOS>COMMENT
> <Gold.Version>
2022.3.0

> <Gold.Id.Protein>
unknown|7rmi_cavity_clean|pdb

> <Gold.Protein.RotatedTorsions>
[ 3787 3780 3778 3775 ] final  -71.25 input   60.01 | X-H torsion
[ 7241 7225 7224 7223 ] final  -78.16 input   60.01 | X-H torsion
[ 7244 7226 7227 7228 ] final  147.81 input   59.90 | X-H torsion
[ 7275 7267 7268 7269 ] final   -5.92 input   86.30 | X-H torsion
[ 8107 8100 8094 8093 ] final -120.01 input   59.99 | X-H torsion
[ 7259 7254 7253 7250 ] final   38.79 input   59.97 | X-H torsion
[ 7633 7625 7626 7627 ] final  -68.52 input   88.29 | X-H torsion
[ 14310 7229 7228 7227 ] final -121.13 input    0.00 | X-H torsion
[ 14346 7628 7627 7626 ] final -115.16 input    0.00 | X-H torsion

> <Gold.Protein.ActiveResidues>
 THR47   ARG48   ARG49   LYS280  SER281  LEU284  LEU286  CYS294  ASN295  VAL296 
 GLY306  VAL307  LEU308  VAL320  GLY324  MET325  ALA326  VAL327  TRP339  ASN340 
 ASP48   PRO49   LEU50  

> <Gold.Protein.RotatedAtoms>
  129.8500  152.0117  150.4303 H   0  0  0  0  0  0  0  0  0  0  0  0  # atno 3787 bound_to 3780
  133.7317  164.1704  171.6401 H   0  0  0  0  0  0  0  0  0  0  0  0  # atno 7241 bound_to 7225
  134.7117  164.8112  170.4671 H   0  0  0  0  0  0  0  0  0  0  0  0  # atno 7242 bound_to 7225
  133.9618  165.8094  171.5576 H   0  0  0  0  0  0  0  0  0  0  0  0  # atno 7243 bound_to 7225
  123.6971  133.6820   86.0400 H   0  0  0  0  0  0  0  0  0  0  0  0  # atno 7244 bound_to 7226
  125.9297  161.2826  168.4663 H   0  0  0  0  0  0  0  0  0  0  0  0  # atno 7259 bound_to 7254
  124.7090  157.7531  168.2103 H   0  0  0  0  0  0  0  0  0  0  0  0  # atno 7275 bound_to 7267
  122.3714  123.8260  130.2140 H   0  0  0  0  0  0  0  0  0  0  0  0  # atno 7633 bound_to 7625
  126.2295  159.9660  155.6453 H   0  0  0  0  0  0  0  0  0  0  0  0  # atno 8107 bound_to 8100
  129.5136  151.3784  148.9696 LP  0  0  0  0  0  0  0  0  0  0  0  0  # atno 14301 bound_to 3780
  128.5798  152.5706  149.5806 LP  0  0  0  0  0  0  0  0  0  0  0  0  # atno 14302 bound_to 3780
  124.1315  134.7426   87.3644 LP  0  0  0  0  0  0  0  0  0  0  0  0  # atno 14309 bound_to 7226
  123.0352  134.1238   90.1710 LP  0  0  0  0  0  0  0  0  0  0  0  0  # atno 14310 bound_to 7229
  123.3939  135.5623   89.2754 LP  0  0  0  0  0  0  0  0  0  0  0  0  # atno 14311 bound_to 7229
  127.4186  160.6879  156.3760 LP  0  0  0  0  0  0  0  0  0  0  0  0  # atno 14336 bound_to 8100
  126.3914  162.2520  167.2431 LP  0  0  0  0  0  0  0  0  0  0  0  0  # atno 14341 bound_to 7254
  124.9093  162.4208  167.9074 LP  0  0  0  0  0  0  0  0  0  0  0  0  # atno 14342 bound_to 7254
  123.6223  124.7497  129.4195 LP  0  0  0  0  0  0  0  0  0  0  0  0  # atno 14345 bound_to 7625
  123.0520  123.3377  133.9171 LP  0  0  0  0  0  0  0  0  0  0  0  0  # atno 14346 bound_to 7628
  124.6456  122.6926  133.7065 LP  0  0  0  0  0  0  0  0  0  0  0  0  # atno 14347 bound_to 7628

> <Gold.Score>
     Fitness  S(hb_ext) S(vdw_ext)  S(hb_int)    S(int)      intcor
     31.05       0.00      23.22       0.00      -0.88      -0.77

> <Gold.Goldscore.Fitness>
31.0479

> <Gold.Goldscore.Internal.Vdw>
-1.1034

> <Gold.Goldscore.Internal.Torsion>
-0.5501

> <Gold.Goldscore.External.Vdw>
23.2239

> <Gold.Goldscore.Internal.HBond>
0.0000

> <Gold.Goldscore.External.HBond>
0.0000

> <Gold.Goldscore.Internal.Correction>
-0.7686

> <Gold.Goldscore.Internal.Vdw.Weighted>
-1.1034

> <Gold.Goldscore.Internal.Torsion.Weighted>
-0.5501

> <Gold.Goldscore.External.Vdw.Weighted>
31.9328

> <Gold.Goldscore.Internal.HBond.Weighted>
0.0000

> <Gold.Goldscore.External.HBond.Weighted>
0.0000

> <Gold.Goldscore.Internal.Correction.Weighted>
-0.7686

> <Gold.Rescore>
     Score     S(PLP)   S(hbond)     S(cho)   S(metal)  DE(clash)   DE(tors)     intcor
     29.97     -31.81       0.00       0.00       0.00       0.87       0.49       ----

> <Gold.PLP.Fitness>
29.9690

> <Gold.PLP.PLP>
-31.8105

> <Gold.PLP.part.hbond>
0.0000

> <Gold.PLP.part.metal>
0.0000

> <Gold.PLP.part.buried>
-1.7484

> <Gold.PLP.part.nonpolar>
-30.4579

> <Gold.PLP.part.repulsive>
0.2054

> <Gold.PLP.ligand.clash>
0.8677

> <Gold.PLP.ligand.torsion>
0.4869

> <Gold.PLP.Chemscore.Hbond>
0.0000

> <Gold.PLP.Chemscore.CHOScore>
0.0000

> <Gold.PLP.Chemscore.Metal>
0.0000

> <Gold.PLP.Chemscore.Internal.Correction>
   9.000000E+99

#       Name:                CT1002167954
#       Creating user name   hitesit
#       Creation time:       Sun Apr 16 23:03:42 2023


#       File generated by GOLD software.
#

@<TRIPOS>MOLECULE
CT1002167954|ligand_prepared|mol2|1|dock7
    29    30     1
SMALL
NO_CHARGES


@<TRIPOS>ATOM
      1 C1         137.1408 144.4481 130.9612 C.3            1 RES1               0.0000
      2 C2         135.7573 143.7850 131.1197 C.ar           1 RES1               0.0000
      3 C3         137.1714 145.6155 131.9433 C.2            1 RES1               0.0000
      4 C4         138.1703 143.3621 131.2535 C.2            1 RES1               0.0000
      5 C5         137.4129 144.9943 129.5402 C.3            1 RES1               0.0000
      6 C6         134.9366 144.1066 132.1965 C.ar           1 RES1               0.0000
      7 C7         135.2878 142.8537 130.1973 C.ar           1 RES1               0.0000
      8 N8         137.9274 145.4741 133.0695 N.am           1 RES1               0.0000
      9 O9         136.5109 146.6291 131.7518 O.2            1 RES1               0.0000
     10 N10        138.9607 143.5086 132.3633 N.am           1 RES1               0.0000
     11 O11        138.2928 142.3726 130.5420 O.2            1 RES1               0.0000
     12 C12        138.7265 145.7498 129.4149 C.3            1 RES1               0.0000
     13 C13        133.6903 143.5206 132.3444 C.ar           1 RES1               0.0000
     14 C14        134.0413 142.2686 130.3472 C.ar           1 RES1               0.0000
     15 C15        138.8649 144.5000 133.3014 C.2            1 RES1               0.0000
     16 C16        133.2417 142.6017 131.4198 C.ar           1 RES1               0.0000
     17 O17        139.5755 144.5341 134.3020 O.2            1 RES1               0.0000
     18 H18        137.4198 144.1545 128.8345 H              1 RES1               0.0000
     19 H19        136.5918 145.6642 129.2563 H              1 RES1               0.0000
     20 H20        135.2737 144.8258 132.9356 H              1 RES1               0.0000
     21 H21        135.9002 142.5756 129.3463 H              1 RES1               0.0000
     22 H22        137.7822 146.1557 133.8076 H              1 RES1               0.0000
     23 H23        139.6879 142.8143 132.5029 H              1 RES1               0.0000
     24 H24        138.8680 146.1114 128.3986 H              1 RES1               0.0000
     25 H25        138.7440 146.6068 130.0850 H              1 RES1               0.0000
     26 H26        139.5671 145.1061 129.6657 H              1 RES1               0.0000
     27 H27        133.0654 143.7851 133.1911 H              1 RES1               0.0000
     28 H28        133.6926 141.5455 129.6175 H              1 RES1               0.0000
     29 H29        132.2653 142.1431 131.5357 H              1 RES1               0.0000
@<TRIPOS>BOND
    1    1    2 1     
    2    1    3 1     
    3    1    4 1     
    4    1    5 1     
    5    2    6 ar    
    6    2    7 ar    
    7    3    8 1     
    8    3    9 2     
    9    4   10 1     
   10    4   11 2     
   11    5   12 1     
   12    5   18 1     
   13    5   19 1     
   14    6   13 ar    
   15    6   20 1     
   16    7   14 ar    
   17    7   21 1     
   18    8   15 1     
   19    8   22 1     
   20   10   15 1     
   21   10   23 1     
   22   12   24 1     
   23   12   25 1     
   24   12   26 1     
   25   13   16 ar    
   26   13   27 1     
   27   14   16 ar    
   28   14   28 1     
   29   15   17 2     
   30   16   29 1     
@<TRIPOS>SUBSTRUCTURE
      1 RES1           1
@<TRIPOS>SET
DONOR_HYDROGENS      STATIC     ATOMS    <user>   **** ""
2 22 23
ATOM$RED        STATIC     ATOMS    COLORGROUP SYSTEM
2 22 23
@<TRIPOS>COMMENT
> <Gold.Version>
2022.3.0

> <Gold.Id.Protein>
unknown|7rmi_cavity_clean|pdb

> <Gold.Protein.RotatedTorsions>
[ 3787 3780 3778 3775 ] final   23.37 input   60.01 | X-H torsion
[ 7241 7225 7224 7223 ] final  146.53 input   60.01 | X-H torsion
[ 7244 7226 7227 7228 ] final   75.65 input   59.90 | X-H torsion
[ 7275 7267 7268 7269 ] final  102.69 input   86.30 | X-H torsion
[ 8107 8100 8094 8093 ] final   59.99 input   59.99 | X-H torsion
[ 7259 7254 7253 7250 ] final -142.99 input   59.97 | X-H torsion
[ 7633 7625 7626 7627 ] final -162.93 input   88.29 | X-H torsion
[ 14310 7229 7228 7227 ] final   -6.19 input    0.00 | X-H torsion
[ 14346 7628 7627 7626 ] final   89.19 input    0.00 | X-H torsion

> <Gold.Protein.ActiveResidues>
 THR47   ARG48   ARG49   LYS280  SER281  LEU284  LEU286  CYS294  ASN295  VAL296 
 GLY306  VAL307  LEU308  VAL320  GLY324  MET325  ALA326  VAL327  TRP339  ASN340 
 ASP48   PRO49   LEU50  

> <Gold.Protein.RotatedAtoms>
  128.7404  152.6679  149.9481 H   0  0  0  0  0  0  0  0  0  0  0  0  # atno 3787 bound_to 3780
  134.1174  165.8756  171.3663 H   0  0  0  0  0  0  0  0  0  0  0  0  # atno 7241 bound_to 7225
  133.6318  164.3490  171.7916 H   0  0  0  0  0  0  0  0  0  0  0  0  # atno 7242 bound_to 7225
  134.6563  164.5654  170.5065 H   0  0  0  0  0  0  0  0  0  0  0  0  # atno 7243 bound_to 7225
  123.9162  133.3855   87.0235 H   0  0  0  0  0  0  0  0  0  0  0  0  # atno 7244 bound_to 7226
  125.5331  162.6897  167.2952 H   0  0  0  0  0  0  0  0  0  0  0  0  # atno 7259 bound_to 7254
  124.6096  158.6970  167.1202 H   0  0  0  0  0  0  0  0  0  0  0  0  # atno 7275 bound_to 7267
  123.2075  123.6525  129.2423 H   0  0  0  0  0  0  0  0  0  0  0  0  # atno 7633 bound_to 7625
  127.5370  161.3050  155.7080 H   0  0  0  0  0  0  0  0  0  0  0  0  # atno 8107 bound_to 8100
  130.0310  151.7124  150.2111 LP  0  0  0  0  0  0  0  0  0  0  0  0  # atno 14301 bound_to 3780
  129.1795  151.5760  148.8244 LP  0  0  0  0  0  0  0  0  0  0  0  0  # atno 14302 bound_to 3780
  123.9204  135.0284   86.4166 LP  0  0  0  0  0  0  0  0  0  0  0  0  # atno 14309 bound_to 7226
  123.7507  134.7314   89.0523 LP  0  0  0  0  0  0  0  0  0  0  0  0  # atno 14310 bound_to 7229
  122.6784  134.9547   90.3941 LP  0  0  0  0  0  0  0  0  0  0  0  0  # atno 14311 bound_to 7229
  126.1565  160.7598  155.1919 LP  0  0  0  0  0  0  0  0  0  0  0  0  # atno 14336 bound_to 8100
  125.1142  161.6938  168.5125 LP  0  0  0  0  0  0  0  0  0  0  0  0  # atno 14341 bound_to 7254
  126.5856  161.5629  167.8166 LP  0  0  0  0  0  0  0  0  0  0  0  0  # atno 14342 bound_to 7254
  122.8020  124.9200  130.3728 LP  0  0  0  0  0  0  0  0  0  0  0  0  # atno 14345 bound_to 7625
  124.7030  122.9634  133.9449 LP  0  0  0  0  0  0  0  0  0  0  0  0  # atno 14346 bound_to 7628
  122.9946  123.0669  133.6788 LP  0  0  0  0  0  0  0  0  0  0  0  0  # atno 14347 bound_to 7628

> <Gold.Score>
     Fitness  S(hb_ext) S(vdw_ext)  S(hb_int)    S(int)      intcor
     30.81       0.00      23.72       0.00      -1.81      -0.76

> <Gold.Goldscore.Fitness>
30.8053

> <Gold.Goldscore.Internal.Vdw>
-2.1651

> <Gold.Goldscore.Internal.Torsion>
-0.4064

> <Gold.Goldscore.External.Vdw>
23.7224

> <Gold.Goldscore.Internal.HBond>
0.0000

> <Gold.Goldscore.External.HBond>
0.0000

> <Gold.Goldscore.Internal.Correction>
-0.7585

> <Gold.Goldscore.Internal.Vdw.Weighted>
-2.1651

> <Gold.Goldscore.Internal.Torsion.Weighted>
-0.4064

> <Gold.Goldscore.External.Vdw.Weighted>
32.6183

> <Gold.Goldscore.Internal.HBond.Weighted>
0.0000

> <Gold.Goldscore.External.HBond.Weighted>
0.0000

> <Gold.Goldscore.Internal.Correction.Weighted>
-0.7585

> <Gold.Rescore>
     Score     S(PLP)   S(hbond)     S(cho)   S(metal)  DE(clash)   DE(tors)     intcor
     35.37     -37.58       0.00       0.00       0.00       1.73       0.24       ----

> <Gold.PLP.Fitness>
35.3679

> <Gold.PLP.PLP>
-37.5783

> <Gold.PLP.part.hbond>
0.0000

> <Gold.PLP.part.metal>
0.0000

> <Gold.PLP.part.buried>
-2.2911

> <Gold.PLP.part.nonpolar>
-36.4061

> <Gold.PLP.part.repulsive>
0.1645

> <Gold.PLP.ligand.clash>
1.7277

> <Gold.PLP.ligand.torsion>
0.2414

> <Gold.PLP.Chemscore.Hbond>
0.0000

> <Gold.PLP.Chemscore.CHOScore>
0.0000

> <Gold.PLP.Chemscore.Metal>
0.0000

> <Gold.PLP.Chemscore.Internal.Correction>
   9.000000E+99

#       Name:                CT1002167954
#       Creating user name   hitesit
#       Creation time:       Sun Apr 16 23:04:53 2023


#       File generated by GOLD software.
#

@<TRIPOS>MOLECULE
CT1002167954|ligand_prepared|mol2|1|dock9
    29    30     1
SMALL
NO_CHARGES


@<TRIPOS>ATOM
      1 C1         134.3591 143.7560 129.5571 C.3            1 RES1               0.0000
      2 C2         133.5263 143.8535 128.2626 C.ar           1 RES1               0.0000
      3 C3         134.3313 145.1441 130.1900 C.2            1 RES1               0.0000
      4 C4         133.7033 142.6721 130.4055 C.2            1 RES1               0.0000
      5 C5         135.8334 143.3524 129.3227 C.3            1 RES1               0.0000
      6 C6         132.2765 144.4656 128.2684 C.ar           1 RES1               0.0000
      7 C7         133.9950 143.3394 127.0565 C.ar           1 RES1               0.0000
      8 N8         133.5567 145.3174 131.2991 N.am           1 RES1               0.0000
      9 O9         134.9484 146.0821 129.7005 O.2            1 RES1               0.0000
     10 N10        133.1245 143.0462 131.5900 N.am           1 RES1               0.0000
     11 O11        133.6679 141.5002 130.0512 O.2            1 RES1               0.0000
     12 C12        136.7020 143.4534 130.5667 C.3            1 RES1               0.0000
     13 C13        131.5237 144.5629 127.1099 C.ar           1 RES1               0.0000
     14 C14        133.2404 143.4376 125.8991 C.ar           1 RES1               0.0000
     15 C15        132.9946 144.3245 132.0605 C.2            1 RES1               0.0000
     16 C16        132.0052 144.0495 125.9246 C.ar           1 RES1               0.0000
     17 O17        132.4126 144.5869 133.1091 O.2            1 RES1               0.0000
     18 H18        135.8626 142.3195 128.9546 H              1 RES1               0.0000
     19 H19        136.2566 143.9981 128.5433 H              1 RES1               0.0000
     20 H20        131.8801 144.8734 129.1923 H              1 RES1               0.0000
     21 H21        134.9635 142.8529 127.0130 H              1 RES1               0.0000
     22 H22        133.3790 146.2738 131.5890 H              1 RES1               0.0000
     23 H23        132.7566 142.3029 132.1752 H              1 RES1               0.0000
     24 H24        137.7261 143.1592 130.3470 H              1 RES1               0.0000
     25 H25        136.7162 144.4733 130.9455 H              1 RES1               0.0000
     26 H26        136.3245 142.8046 131.3543 H              1 RES1               0.0000
     27 H27        130.5516 145.0442 127.1355 H              1 RES1               0.0000
     28 H28        133.6230 143.0315 124.9686 H              1 RES1               0.0000
     29 H29        131.4154 144.1261 125.0171 H              1 RES1               0.0000
@<TRIPOS>BOND
    1    1    2 1     
    2    1    3 1     
    3    1    4 1     
    4    1    5 1     
    5    2    6 ar    
    6    2    7 ar    
    7    3    8 1     
    8    3    9 2     
    9    4   10 1     
   10    4   11 2     
   11    5   12 1     
   12    5   18 1     
   13    5   19 1     
   14    6   13 ar    
   15    6   20 1     
   16    7   14 ar    
   17    7   21 1     
   18    8   15 1     
   19    8   22 1     
   20   10   15 1     
   21   10   23 1     
   22   12   24 1     
   23   12   25 1     
   24   12   26 1     
   25   13   16 ar    
   26   13   27 1     
   27   14   16 ar    
   28   14   28 1     
   29   15   17 2     
   30   16   29 1     
@<TRIPOS>SUBSTRUCTURE
      1 RES1           1
@<TRIPOS>SET
DONOR_HYDROGENS      STATIC     ATOMS    <user>   **** ""
2 22 23
ATOM$RED        STATIC     ATOMS    COLORGROUP SYSTEM
2 22 23
@<TRIPOS>COMMENT
> <Gold.Version>
2022.3.0

> <Gold.Id.Protein>
unknown|7rmi_cavity_clean|pdb

> <Gold.Protein.RotatedTorsions>
[ 3787 3780 3778 3775 ] final -158.76 input   60.01 | X-H torsion
[ 7241 7225 7224 7223 ] final  136.18 input   60.01 | X-H torsion
[ 7244 7226 7227 7228 ] final -172.68 input   59.90 | X-H torsion
[ 7275 7267 7268 7269 ] final   51.69 input   86.30 | X-H torsion
[ 8107 8100 8094 8093 ] final -120.01 input   59.99 | X-H torsion
[ 7259 7254 7253 7250 ] final   66.64 input   59.97 | X-H torsion
[ 7633 7625 7626 7627 ] final -178.87 input   88.29 | X-H torsion
[ 14310 7229 7228 7227 ] final  131.78 input    0.00 | X-H torsion
[ 14346 7628 7627 7626 ] final  -61.37 input    0.00 | X-H torsion

> <Gold.Protein.ActiveResidues>
 THR47   ARG48   ARG49   LYS280  SER281  LEU284  LEU286  CYS294  ASN295  VAL296 
 GLY306  VAL307  LEU308  VAL320  GLY324  MET325  ALA326  VAL327  TRP339  ASN340 
 ASP48   PRO49   LEU50  

> <Gold.Protein.RotatedAtoms>
  129.8750  151.3066  149.3445 H   0  0  0  0  0  0  0  0  0  0  0  0  # atno 3787 bound_to 3780
  134.2239  165.8826  171.2307 H   0  0  0  0  0  0  0  0  0  0  0  0  # atno 7241 bound_to 7225
  133.5841  164.4944  171.8715 H   0  0  0  0  0  0  0  0  0  0  0  0  # atno 7242 bound_to 7225
  134.5974  164.4130  170.5622 H   0  0  0  0  0  0  0  0  0  0  0  0  # atno 7243 bound_to 7225
  123.6947  134.2548   85.8517 H   0  0  0  0  0  0  0  0  0  0  0  0  # atno 7244 bound_to 7226
  125.5111  161.4091  168.5758 H   0  0  0  0  0  0  0  0  0  0  0  0  # atno 7259 bound_to 7254
  125.0240  158.2744  167.6067 H   0  0  0  0  0  0  0  0  0  0  0  0  # atno 7275 bound_to 7267
  123.3691  123.8191  129.1658 H   0  0  0  0  0  0  0  0  0  0  0  0  # atno 7633 bound_to 7625
  126.2295  159.9660  155.6453 H   0  0  0  0  0  0  0  0  0  0  0  0  # atno 8107 bound_to 8100
  128.5900  152.2833  149.1381 LP  0  0  0  0  0  0  0  0  0  0  0  0  # atno 14301 bound_to 3780
  129.4782  152.3757  150.5053 LP  0  0  0  0  0  0  0  0  0  0  0  0  # atno 14302 bound_to 3780
  124.1339  134.1906   87.5459 LP  0  0  0  0  0  0  0  0  0  0  0  0  # atno 14309 bound_to 7226
  122.7818  135.4918   90.0998 LP  0  0  0  0  0  0  0  0  0  0  0  0  # atno 14310 bound_to 7229
  123.6473  134.1943   89.3466 LP  0  0  0  0  0  0  0  0  0  0  0  0  # atno 14311 bound_to 7229
  127.4186  160.6879  156.3760 LP  0  0  0  0  0  0  0  0  0  0  0  0  # atno 14336 bound_to 8100
  126.5916  161.9122  167.4673 LP  0  0  0  0  0  0  0  0  0  0  0  0  # atno 14341 bound_to 7254
  125.1303  162.6333  167.5730 LP  0  0  0  0  0  0  0  0  0  0  0  0  # atno 14342 bound_to 7254
  122.6434  124.7565  130.4479 LP  0  0  0  0  0  0  0  0  0  0  0  0  # atno 14345 bound_to 7625
  123.1271  122.7319  133.4259 LP  0  0  0  0  0  0  0  0  0  0  0  0  # atno 14346 bound_to 7628
  124.5705  123.2985  134.1977 LP  0  0  0  0  0  0  0  0  0  0  0  0  # atno 14347 bound_to 7628

> <Gold.Score>
     Fitness  S(hb_ext) S(vdw_ext)  S(hb_int)    S(int)      intcor
     29.74       0.00      21.70       0.00      -0.10      -0.76

> <Gold.Goldscore.Fitness>
29.7376

> <Gold.Goldscore.Internal.Vdw>
-0.3744

> <Gold.Goldscore.Internal.Torsion>
-0.4839

> <Gold.Goldscore.External.Vdw>
21.6999

> <Gold.Goldscore.Internal.HBond>
0.0000

> <Gold.Goldscore.External.HBond>
0.0000

> <Gold.Goldscore.Internal.Correction>
-0.7585

> <Gold.Goldscore.Internal.Vdw.Weighted>
-0.3744

> <Gold.Goldscore.Internal.Torsion.Weighted>
-0.4839

> <Gold.Goldscore.External.Vdw.Weighted>
29.8374

> <Gold.Goldscore.Internal.HBond.Weighted>
0.0000

> <Gold.Goldscore.External.HBond.Weighted>
0.0000

> <Gold.Goldscore.Internal.Correction.Weighted>
-0.7585

> <Gold.Rescore>
     Score     S(PLP)   S(hbond)     S(cho)   S(metal)  DE(clash)   DE(tors)     intcor
     32.13     -32.16       0.00       0.00       0.00       0.00       0.01       ----

> <Gold.PLP.Fitness>
32.1316

> <Gold.PLP.PLP>
-32.1559

> <Gold.PLP.part.hbond>
0.0000

> <Gold.PLP.part.metal>
0.0000

> <Gold.PLP.part.buried>
-2.6314

> <Gold.PLP.part.nonpolar>
-30.2176

> <Gold.PLP.part.repulsive>
0.1108

> <Gold.PLP.ligand.clash>
0.0000

> <Gold.PLP.ligand.torsion>
0.0122

> <Gold.PLP.Chemscore.Hbond>
0.0000

> <Gold.PLP.Chemscore.CHOScore>
0.0000

> <Gold.PLP.Chemscore.Metal>
0.0000

> <Gold.PLP.Chemscore.Internal.Correction>
   9.000000E+99

#       Name:                CT1002167954
#       Creating user name   hitesit
#       Creation time:       Sun Apr 16 23:04:17 2023


#       File generated by GOLD software.
#

@<TRIPOS>MOLECULE
CT1002167954|ligand_prepared|mol2|1|dock8
    29    30     1
SMALL
NO_CHARGES


@<TRIPOS>ATOM
      1 C1         137.0258 144.4709 130.5127 C.3            1 RES1               0.0000
      2 C2         135.9361 143.7397 129.7023 C.ar           1 RES1               0.0000
      3 C3         138.3568 144.1222 129.8531 C.2            1 RES1               0.0000
      4 C4         136.6745 145.9536 130.4592 C.2            1 RES1               0.0000
      5 C5         137.0885 144.0481 131.9990 C.3            1 RES1               0.0000
      6 C6         135.9150 143.8164 128.3129 C.ar           1 RES1               0.0000
      7 C7         134.9487 142.9839 130.3287 C.ar           1 RES1               0.0000
      8 N8         138.9678 145.0907 129.1125 N.am           1 RES1               0.0000
      9 O9         138.8432 143.0022 129.9487 O.2            1 RES1               0.0000
     10 N10        137.5330 146.7934 129.7994 N.am           1 RES1               0.0000
     11 O11        135.6536 146.3996 130.9682 O.2            1 RES1               0.0000
     12 C12        138.2278 144.6930 132.7724 C.3            1 RES1               0.0000
     13 C13        134.9438 143.1589 127.5762 C.ar           1 RES1               0.0000
     14 C14        133.9783 142.3273 129.5900 C.ar           1 RES1               0.0000
     15 C15        138.6480 146.4246 129.0973 C.2            1 RES1               0.0000
     16 C16        133.9752 142.4137 128.2141 C.ar           1 RES1               0.0000
     17 O17        139.3399 147.2320 128.4838 O.2            1 RES1               0.0000
     18 H18        136.1396 144.3128 132.4817 H              1 RES1               0.0000
     19 H19        137.1987 142.9579 132.0516 H              1 RES1               0.0000
     20 H20        136.6677 144.4002 127.7936 H              1 RES1               0.0000
     21 H21        134.9309 142.9026 131.4102 H              1 RES1               0.0000
     22 H22        139.7332 144.7960 128.5146 H              1 RES1               0.0000
     23 H23        137.3213 147.7855 129.8351 H              1 RES1               0.0000
     24 H24        138.2260 144.3626 133.8089 H              1 RES1               0.0000
     25 H25        139.1886 144.4302 132.3346 H              1 RES1               0.0000
     26 H26        138.1358 145.7771 132.7621 H              1 RES1               0.0000
     27 H27        134.9449 143.2312 126.4936 H              1 RES1               0.0000
     28 H28        133.2175 141.7424 130.0963 H              1 RES1               0.0000
     29 H29        133.2147 141.8984 127.6367 H              1 RES1               0.0000
@<TRIPOS>BOND
    1    1    2 1     
    2    1    3 1     
    3    1    4 1     
    4    1    5 1     
    5    2    6 ar    
    6    2    7 ar    
    7    3    8 1     
    8    3    9 2     
    9    4   10 1     
   10    4   11 2     
   11    5   12 1     
   12    5   18 1     
   13    5   19 1     
   14    6   13 ar    
   15    6   20 1     
   16    7   14 ar    
   17    7   21 1     
   18    8   15 1     
   19    8   22 1     
   20   10   15 1     
   21   10   23 1     
   22   12   24 1     
   23   12   25 1     
   24   12   26 1     
   25   13   16 ar    
   26   13   27 1     
   27   14   16 ar    
   28   14   28 1     
   29   15   17 2     
   30   16   29 1     
@<TRIPOS>SUBSTRUCTURE
      1 RES1           1
@<TRIPOS>SET
DONOR_HYDROGENS      STATIC     ATOMS    <user>   **** ""
2 22 23
ATOM$RED        STATIC     ATOMS    COLORGROUP SYSTEM
2 22 23
@<TRIPOS>COMMENT
> <Gold.Version>
2022.3.0

> <Gold.Id.Protein>
unknown|7rmi_cavity_clean|pdb

> <Gold.Protein.RotatedTorsions>
[ 3787 3780 3778 3775 ] final  164.31 input   60.01 | X-H torsion
[ 7241 7225 7224 7223 ] final  167.11 input   60.01 | X-H torsion
[ 7244 7226 7227 7228 ] final  -83.74 input   59.90 | X-H torsion
[ 7275 7267 7268 7269 ] final  -10.88 input   86.30 | X-H torsion
[ 8107 8100 8094 8093 ] final -120.01 input   59.99 | X-H torsion
[ 7259 7254 7253 7250 ] final   83.52 input   59.97 | X-H torsion
[ 7633 7625 7626 7627 ] final  126.97 input   88.29 | X-H torsion
[ 14310 7229 7228 7227 ] final  177.79 input    0.00 | X-H torsion
[ 14346 7628 7627 7626 ] final  -12.71 input    0.00 | X-H torsion

> <Gold.Protein.ActiveResidues>
 THR47   ARG48   ARG49   LYS280  SER281  LEU284  LEU286  CYS294  ASN295  VAL296 
 GLY306  VAL307  LEU308  VAL320  GLY324  MET325  ALA326  VAL327  TRP339  ASN340 
 ASP48   PRO49   LEU50  

> <Gold.Protein.RotatedAtoms>
  129.4570  151.4116  148.9370 H   0  0  0  0  0  0  0  0  0  0  0  0  # atno 3787 bound_to 3780
  133.9107  165.7714  171.6178 H   0  0  0  0  0  0  0  0  0  0  0  0  # atno 7241 bound_to 7225
  133.7733  164.1201  171.5806 H   0  0  0  0  0  0  0  0  0  0  0  0  # atno 7242 bound_to 7225
  134.7216  164.8987  170.4659 H   0  0  0  0  0  0  0  0  0  0  0  0  # atno 7243 bound_to 7225
  123.9729  135.1123   86.7168 H   0  0  0  0  0  0  0  0  0  0  0  0  # atno 7244 bound_to 7226
  125.2778  161.5541  168.5632 H   0  0  0  0  0  0  0  0  0  0  0  0  # atno 7259 bound_to 7254
  124.6477  157.7228  168.2455 H   0  0  0  0  0  0  0  0  0  0  0  0  # atno 7275 bound_to 7267
  123.6527  124.5608  129.2815 H   0  0  0  0  0  0  0  0  0  0  0  0  # atno 7633 bound_to 7625
  126.2295  159.9660  155.6453 H   0  0  0  0  0  0  0  0  0  0  0  0  # atno 8107 bound_to 8100
  128.5971  152.5971  149.6463 LP  0  0  0  0  0  0  0  0  0  0  0  0  # atno 14301 bound_to 3780
  129.8920  151.9562  150.4074 LP  0  0  0  0  0  0  0  0  0  0  0  0  # atno 14302 bound_to 3780
  123.8658  133.3642   86.7122 LP  0  0  0  0  0  0  0  0  0  0  0  0  # atno 14309 bound_to 7226
  122.6833  134.8959   90.4051 LP  0  0  0  0  0  0  0  0  0  0  0  0  # atno 14310 bound_to 7229
  123.7458  134.7902   89.0413 LP  0  0  0  0  0  0  0  0  0  0  0  0  # atno 14311 bound_to 7229
  127.4186  160.6879  156.3760 LP  0  0  0  0  0  0  0  0  0  0  0  0  # atno 14336 bound_to 8100
  126.6185  161.7090  167.6534 LP  0  0  0  0  0  0  0  0  0  0  0  0  # atno 14341 bound_to 7254
  125.3383  162.6906  167.3996 LP  0  0  0  0  0  0  0  0  0  0  0  0  # atno 14342 bound_to 7254
  122.3652  124.0288  130.3343 LP  0  0  0  0  0  0  0  0  0  0  0  0  # atno 14345 bound_to 7625
  123.7169  122.3722  133.2468 LP  0  0  0  0  0  0  0  0  0  0  0  0  # atno 14346 bound_to 7628
  123.9808  123.6581  134.3768 LP  0  0  0  0  0  0  0  0  0  0  0  0  # atno 14347 bound_to 7628

> <Gold.Score>
     Fitness  S(hb_ext) S(vdw_ext)  S(hb_int)    S(int)      intcor
     28.08       0.00      20.57       0.00      -0.21      -0.76

> <Gold.Goldscore.Fitness>
28.0789

> <Gold.Goldscore.Internal.Vdw>
-0.5683

> <Gold.Goldscore.Internal.Torsion>
-0.3974

> <Gold.Goldscore.External.Vdw>
20.5717

> <Gold.Goldscore.Internal.HBond>
0.0000

> <Gold.Goldscore.External.HBond>
0.0000

> <Gold.Goldscore.Internal.Correction>
-0.7585

> <Gold.Goldscore.Internal.Vdw.Weighted>
-0.5683

> <Gold.Goldscore.Internal.Torsion.Weighted>
-0.3974

> <Gold.Goldscore.External.Vdw.Weighted>
28.2861

> <Gold.Goldscore.Internal.HBond.Weighted>
0.0000

> <Gold.Goldscore.External.HBond.Weighted>
0.0000

> <Gold.Goldscore.Internal.Correction.Weighted>
-0.7585

> <Gold.Rescore>
     Score     S(PLP)   S(hbond)     S(cho)   S(metal)  DE(clash)   DE(tors)     intcor
     32.09     -32.13       0.00       0.00       0.00       0.00       0.02       ----

> <Gold.PLP.Fitness>
32.0870

> <Gold.PLP.PLP>
-32.1308

> <Gold.PLP.part.hbond>
0.0000

> <Gold.PLP.part.metal>
0.0000

> <Gold.PLP.part.buried>
-2.3532

> <Gold.PLP.part.nonpolar>
-30.7696

> <Gold.PLP.part.repulsive>
0.1265

> <Gold.PLP.ligand.clash>
0.0000

> <Gold.PLP.ligand.torsion>
0.0219

> <Gold.PLP.Chemscore.Hbond>
0.0000

> <Gold.PLP.Chemscore.CHOScore>
0.0000

> <Gold.PLP.Chemscore.Metal>
0.0000

> <Gold.PLP.Chemscore.Internal.Correction>
   9.000000E+99

#       Name:                CT1002167954
#       Creating user name   hitesit
#       Creation time:       Sun Apr 16 23:01:21 2023


#       File generated by GOLD software.
#

@<TRIPOS>MOLECULE
CT1002167954|ligand_prepared|mol2|1|dock3
    29    30     1
SMALL
NO_CHARGES


@<TRIPOS>ATOM
      1 C1         137.0043 144.5566 130.6291 C.3            1 RES1               0.0000
      2 C2         135.9060 143.8550 129.8043 C.ar           1 RES1               0.0000
      3 C3         138.3306 143.9506 130.1797 C.2            1 RES1               0.0000
      4 C4         136.8706 146.0471 130.3370 C.2            1 RES1               0.0000
      5 C5         136.8642 144.3546 132.1559 C.3            1 RES1               0.0000
      6 C6         134.7020 143.4858 130.3966 C.ar           1 RES1               0.0000
      7 C7         136.0809 143.5733 128.4520 C.ar           1 RES1               0.0000
      8 N8         139.1394 144.7146 129.3910 N.am           1 RES1               0.0000
      9 O9         138.6442 142.8053 130.4801 O.2            1 RES1               0.0000
     10 N10        137.8975 146.6660 129.6735 N.am           1 RES1               0.0000
     11 O11        135.8780 146.6876 130.6606 O.2            1 RES1               0.0000
     12 C12        138.0822 144.8030 132.9480 C.3            1 RES1               0.0000
     13 C13        133.7076 142.8602 129.6629 C.ar           1 RES1               0.0000
     14 C14        135.0853 142.9474 127.7203 C.ar           1 RES1               0.0000
     15 C15        139.0122 146.0608 129.1601 C.2            1 RES1               0.0000
     16 C16        133.8984 142.5910 128.3244 C.ar           1 RES1               0.0000
     17 O17        139.8660 146.6756 128.5275 O.2            1 RES1               0.0000
     18 H18        135.9887 144.9145 132.5073 H              1 RES1               0.0000
     19 H19        136.6846 143.2911 132.3563 H              1 RES1               0.0000
     20 H20        134.5349 143.6873 131.4494 H              1 RES1               0.0000
     21 H21        137.0070 143.8436 127.9561 H              1 RES1               0.0000
     22 H22        139.9099 144.2412 128.9301 H              1 RES1               0.0000
     23 H23        137.8243 147.6710 129.5510 H              1 RES1               0.0000
     24 H24        137.9314 144.6393 134.0130 H              1 RES1               0.0000
     25 H25        138.9670 144.2487 132.6419 H              1 RES1               0.0000
     26 H26        138.2752 145.8624 132.7920 H              1 RES1               0.0000
     27 H27        132.7759 142.5805 130.1434 H              1 RES1               0.0000
     28 H28        135.2399 142.7369 126.6672 H              1 RES1               0.0000
     29 H29        133.1191 142.1013 127.7498 H              1 RES1               0.0000
@<TRIPOS>BOND
    1    1    2 1     
    2    1    3 1     
    3    1    4 1     
    4    1    5 1     
    5    2    6 ar    
    6    2    7 ar    
    7    3    8 1     
    8    3    9 2     
    9    4   10 1     
   10    4   11 2     
   11    5   12 1     
   12    5   18 1     
   13    5   19 1     
   14    6   13 ar    
   15    6   20 1     
   16    7   14 ar    
   17    7   21 1     
   18    8   15 1     
   19    8   22 1     
   20   10   15 1     
   21   10   23 1     
   22   12   24 1     
   23   12   25 1     
   24   12   26 1     
   25   13   16 ar    
   26   13   27 1     
   27   14   16 ar    
   28   14   28 1     
   29   15   17 2     
   30   16   29 1     
@<TRIPOS>SUBSTRUCTURE
      1 RES1           1
@<TRIPOS>SET
DONOR_HYDROGENS      STATIC     ATOMS    <user>   **** ""
2 22 23
ATOM$RED        STATIC     ATOMS    COLORGROUP SYSTEM
2 22 23
@<TRIPOS>COMMENT
> <Gold.Version>
2022.3.0

> <Gold.Id.Protein>
unknown|7rmi_cavity_clean|pdb

> <Gold.Protein.RotatedTorsions>
[ 3787 3780 3778 3775 ] final  146.00 input   60.01 | X-H torsion
[ 7241 7225 7224 7223 ] final -105.82 input   60.01 | X-H torsion
[ 7244 7226 7227 7228 ] final -148.49 input   59.90 | X-H torsion
[ 7275 7267 7268 7269 ] final -110.34 input   86.30 | X-H torsion
[ 8107 8100 8094 8093 ] final -120.01 input   59.99 | X-H torsion
[ 7259 7254 7253 7250 ] final  -36.25 input   59.97 | X-H torsion
[ 7633 7625 7626 7627 ] final -164.62 input   88.29 | X-H torsion
[ 14310 7229 7228 7227 ] final    5.15 input    0.00 | X-H torsion
[ 14346 7628 7627 7626 ] final  129.89 input    0.00 | X-H torsion

> <Gold.Protein.ActiveResidues>
 THR47   ARG48   ARG49   LYS280  SER281  LEU284  LEU286  CYS294  ASN295  VAL296 
 GLY306  VAL307  LEU308  VAL320  GLY324  MET325  ALA326  VAL327  TRP339  ASN340 
 ASP48   PRO49   LEU50  

> <Gold.Protein.RotatedAtoms>
  129.2167  151.5563  148.8366 H   0  0  0  0  0  0  0  0  0  0  0  0  # atno 3787 bound_to 3780
  133.5769  164.5247  171.8843 H   0  0  0  0  0  0  0  0  0  0  0  0  # atno 7241 bound_to 7225
  134.5842  164.3854  170.5755 H   0  0  0  0  0  0  0  0  0  0  0  0  # atno 7242 bound_to 7225
  134.2443  165.8808  171.2048 H   0  0  0  0  0  0  0  0  0  0  0  0  # atno 7243 bound_to 7225
  123.7425  134.6162   85.9339 H   0  0  0  0  0  0  0  0  0  0  0  0  # atno 7244 bound_to 7226
  126.6137  161.7099  167.6593 H   0  0  0  0  0  0  0  0  0  0  0  0  # atno 7259 bound_to 7254
  123.3363  157.9563  167.9813 H   0  0  0  0  0  0  0  0  0  0  0  0  # atno 7275 bound_to 7267
  123.2256  123.6680  129.2320 H   0  0  0  0  0  0  0  0  0  0  0  0  # atno 7633 bound_to 7625
  126.2295  159.9660  155.6453 H   0  0  0  0  0  0  0  0  0  0  0  0  # atno 8107 bound_to 8100
  128.7125  152.6661  149.9145 LP  0  0  0  0  0  0  0  0  0  0  0  0  # atno 14301 bound_to 3780
  130.0185  151.7416  150.2403 LP  0  0  0  0  0  0  0  0  0  0  0  0  # atno 14302 bound_to 3780
  124.0878  133.8423   87.4667 LP  0  0  0  0  0  0  0  0  0  0  0  0  # atno 14309 bound_to 7226
  123.7301  134.8998   89.0297 LP  0  0  0  0  0  0  0  0  0  0  0  0  # atno 14310 bound_to 7229
  122.6990  134.7863   90.4168 LP  0  0  0  0  0  0  0  0  0  0  0  0  # atno 14311 bound_to 7229
  127.4186  160.6879  156.3760 LP  0  0  0  0  0  0  0  0  0  0  0  0  # atno 14336 bound_to 8100
  125.3416  162.6909  167.3974 LP  0  0  0  0  0  0  0  0  0  0  0  0  # atno 14341 bound_to 7254
  125.2708  161.5518  168.5653 LP  0  0  0  0  0  0  0  0  0  0  0  0  # atno 14342 bound_to 7254
  122.7843  124.9047  130.3829 LP  0  0  0  0  0  0  0  0  0  0  0  0  # atno 14345 bound_to 7625
  124.4670  123.4115  134.2709 LP  0  0  0  0  0  0  0  0  0  0  0  0  # atno 14346 bound_to 7628
  123.2307  122.6188  133.3527 LP  0  0  0  0  0  0  0  0  0  0  0  0  # atno 14347 bound_to 7628

> <Gold.Score>
     Fitness  S(hb_ext) S(vdw_ext)  S(hb_int)    S(int)      intcor
     27.33       0.00      20.33       0.00      -0.62      -0.76

> <Gold.Goldscore.Fitness>
27.3252

> <Gold.Goldscore.Internal.Vdw>
-0.8026

> <Gold.Goldscore.Internal.Torsion>
-0.5809

> <Gold.Goldscore.External.Vdw>
20.3273

> <Gold.Goldscore.Internal.HBond>
0.0000

> <Gold.Goldscore.External.HBond>
0.0000

> <Gold.Goldscore.Internal.Correction>
-0.7585

> <Gold.Goldscore.Internal.Vdw.Weighted>
-0.8026

> <Gold.Goldscore.Internal.Torsion.Weighted>
-0.5809

> <Gold.Goldscore.External.Vdw.Weighted>
27.9501

> <Gold.Goldscore.Internal.HBond.Weighted>
0.0000

> <Gold.Goldscore.External.HBond.Weighted>
0.0000

> <Gold.Goldscore.Internal.Correction.Weighted>
-0.7585

> <Gold.Rescore>
     Score     S(PLP)   S(hbond)     S(cho)   S(metal)  DE(clash)   DE(tors)     intcor
     37.81     -39.45       0.00       0.00       0.00       0.00       0.82       ----

> <Gold.PLP.Fitness>
37.8100

> <Gold.PLP.PLP>
-39.4516

> <Gold.PLP.part.hbond>
0.0000

> <Gold.PLP.part.metal>
0.0000

> <Gold.PLP.part.buried>
-3.0887

> <Gold.PLP.part.nonpolar>
-37.1943

> <Gold.PLP.part.repulsive>
0.1616

> <Gold.PLP.ligand.clash>
0.0000

> <Gold.PLP.ligand.torsion>
0.8208

> <Gold.PLP.Chemscore.Hbond>
0.0000

> <Gold.PLP.Chemscore.CHOScore>
0.0000

> <Gold.PLP.Chemscore.Metal>
0.0000

> <Gold.PLP.Chemscore.Internal.Correction>
   9.000000E+99

#       Name:                CT1002167954
#       Creating user name   hitesit
#       Creation time:       Sun Apr 16 23:03:07 2023


#       File generated by GOLD software.
#

@<TRIPOS>MOLECULE
CT1002167954|ligand_prepared|mol2|1|dock6
    29    30     1
SMALL
NO_CHARGES


@<TRIPOS>ATOM
      1 C1         133.9136 143.8402 129.7081 C.3            1 RES1               0.0000
      2 C2         133.4398 143.7924 128.2411 C.ar           1 RES1               0.0000
      3 C3         134.8828 142.6748 129.8835 C.2            1 RES1               0.0000
      4 C4         134.5480 145.2123 129.9070 C.2            1 RES1               0.0000
      5 C5         132.7709 143.6882 130.7390 C.3            1 RES1               0.0000
      6 C6         134.1818 143.1144 127.2786 C.ar           1 RES1               0.0000
      7 C7         132.2636 144.4180 127.8365 C.ar           1 RES1               0.0000
      8 N8         136.2121 142.9664 129.9722 N.am           1 RES1               0.0000
      9 O9         134.4902 141.5148 129.9041 O.2            1 RES1               0.0000
     10 N10        135.8932 145.2668 130.1626 N.am           1 RES1               0.0000
     11 O11        133.8983 146.2477 129.8282 O.2            1 RES1               0.0000
     12 C12        133.2413 143.7190 132.1847 C.3            1 RES1               0.0000
     13 C13        133.7618 143.0613 125.9599 C.ar           1 RES1               0.0000
     14 C14        131.8455 144.3638 126.5171 C.ar           1 RES1               0.0000
     15 C15        136.7596 144.2078 130.1737 C.2            1 RES1               0.0000
     16 C16        132.5933 143.6855 125.5783 C.ar           1 RES1               0.0000
     17 O17        137.9660 144.3428 130.3572 O.2            1 RES1               0.0000
     18 H18        132.0471 144.4982 130.5859 H              1 RES1               0.0000
     19 H19        132.2543 142.7379 130.5560 H              1 RES1               0.0000
     20 H20        135.1053 142.6193 127.5596 H              1 RES1               0.0000
     21 H21        131.6598 144.9584 128.5576 H              1 RES1               0.0000
     22 H22        136.8588 142.1895 129.8800 H              1 RES1               0.0000
     23 H23        136.2849 146.1815 130.3632 H              1 RES1               0.0000
     24 H24        132.4005 143.6085 132.8663 H              1 RES1               0.0000
     25 H25        133.9436 142.9111 132.3791 H              1 RES1               0.0000
     26 H26        133.7377 144.6609 132.4088 H              1 RES1               0.0000
     27 H27        134.3546 142.5272 125.2246 H              1 RES1               0.0000
     28 H28        130.9255 144.8571 126.2212 H              1 RES1               0.0000
     29 H29        132.2642 143.6433 124.5453 H              1 RES1               0.0000
@<TRIPOS>BOND
    1    1    2 1     
    2    1    3 1     
    3    1    4 1     
    4    1    5 1     
    5    2    6 ar    
    6    2    7 ar    
    7    3    8 1     
    8    3    9 2     
    9    4   10 1     
   10    4   11 2     
   11    5   12 1     
   12    5   18 1     
   13    5   19 1     
   14    6   13 ar    
   15    6   20 1     
   16    7   14 ar    
   17    7   21 1     
   18    8   15 1     
   19    8   22 1     
   20   10   15 1     
   21   10   23 1     
   22   12   24 1     
   23   12   25 1     
   24   12   26 1     
   25   13   16 ar    
   26   13   27 1     
   27   14   16 ar    
   28   14   28 1     
   29   15   17 2     
   30   16   29 1     
@<TRIPOS>SUBSTRUCTURE
      1 RES1           1
@<TRIPOS>SET
DONOR_HYDROGENS      STATIC     ATOMS    <user>   **** ""
2 22 23
ATOM$RED        STATIC     ATOMS    COLORGROUP SYSTEM
2 22 23
@<TRIPOS>COMMENT
> <Gold.Version>
2022.3.0

> <Gold.Id.Protein>
unknown|7rmi_cavity_clean|pdb

> <Gold.Protein.RotatedTorsions>
[ 3787 3780 3778 3775 ] final   34.23 input   60.01 | X-H torsion
[ 7241 7225 7224 7223 ] final  124.99 input   60.01 | X-H torsion
[ 7244 7226 7227 7228 ] final    5.18 input   59.90 | X-H torsion
[ 7275 7267 7268 7269 ] final    0.01 input   86.30 | X-H torsion
[ 8107 8100 8094 8093 ] final   59.99 input   59.99 | X-H torsion
[ 7259 7254 7253 7250 ] final   98.20 input   59.97 | X-H torsion
[ 7633 7625 7626 7627 ] final  124.12 input   88.29 | X-H torsion
[ 14310 7229 7228 7227 ] final  110.92 input    0.00 | X-H torsion
[ 14346 7628 7627 7626 ] final  133.23 input    0.00 | X-H torsion

> <Gold.Protein.ActiveResidues>
 THR47   ARG48   ARG49   LYS280  SER281  LEU284  LEU286  CYS294  ASN295  VAL296 
 GLY306  VAL307  LEU308  VAL320  GLY324  MET325  ALA326  VAL327  TRP339  ASN340 
 ASP48   PRO49   LEU50  

> <Gold.Protein.RotatedAtoms>
  128.6588  152.6410  149.7933 H   0  0  0  0  0  0  0  0  0  0  0  0  # atno 3787 bound_to 3780
  134.3356  165.8553  171.0840 H   0  0  0  0  0  0  0  0  0  0  0  0  # atno 7241 bound_to 7225
  133.5527  164.6673  171.9341 H   0  0  0  0  0  0  0  0  0  0  0  0  # atno 7242 bound_to 7225
  134.5170  164.2673  170.6465 H   0  0  0  0  0  0  0  0  0  0  0  0  # atno 7243 bound_to 7225
  124.1180  134.2248   87.5837 H   0  0  0  0  0  0  0  0  0  0  0  0  # atno 7244 bound_to 7226
  125.1069  161.7108  168.5038 H   0  0  0  0  0  0  0  0  0  0  0  0  # atno 7259 bound_to 7254
  124.7767  157.7937  168.1630 H   0  0  0  0  0  0  0  0  0  0  0  0  # atno 7275 bound_to 7267
  123.6528  124.5992  129.3028 H   0  0  0  0  0  0  0  0  0  0  0  0  # atno 7633 bound_to 7625
  127.5370  161.3050  155.7080 H   0  0  0  0  0  0  0  0  0  0  0  0  # atno 8107 bound_to 8100
  129.9698  151.8364  150.3239 LP  0  0  0  0  0  0  0  0  0  0  0  0  # atno 14301 bound_to 3780
  129.3229  151.4792  148.8677 LP  0  0  0  0  0  0  0  0  0  0  0  0  # atno 14302 bound_to 3780
  123.7259  134.2195   85.8768 LP  0  0  0  0  0  0  0  0  0  0  0  0  # atno 14309 bound_to 7226
  122.9244  135.6463   89.8670 LP  0  0  0  0  0  0  0  0  0  0  0  0  # atno 14310 bound_to 7229
  123.5047  134.0398   89.5794 LP  0  0  0  0  0  0  0  0  0  0  0  0  # atno 14311 bound_to 7229
  126.1565  160.7598  155.1919 LP  0  0  0  0  0  0  0  0  0  0  0  0  # atno 14336 bound_to 8100
  126.5805  161.5510  167.8312 LP  0  0  0  0  0  0  0  0  0  0  0  0  # atno 14341 bound_to 7254
  125.5483  162.6908  167.2815 LP  0  0  0  0  0  0  0  0  0  0  0  0  # atno 14342 bound_to 7254
  122.3651  123.9911  130.3134 LP  0  0  0  0  0  0  0  0  0  0  0  0  # atno 14345 bound_to 7625
  124.4315  123.4423  134.2893 LP  0  0  0  0  0  0  0  0  0  0  0  0  # atno 14346 bound_to 7628
  123.2661  122.5880  133.3343 LP  0  0  0  0  0  0  0  0  0  0  0  0  # atno 14347 bound_to 7628

> <Gold.Score>
     Fitness  S(hb_ext) S(vdw_ext)  S(hb_int)    S(int)      intcor
     26.46       0.00      20.56       0.00      -1.81      -0.76

> <Gold.Goldscore.Fitness>
26.4640

> <Gold.Goldscore.Internal.Vdw>
-2.2011

> <Gold.Goldscore.Internal.Torsion>
-0.3672

> <Gold.Goldscore.External.Vdw>
20.5628

> <Gold.Goldscore.Internal.HBond>
0.0000

> <Gold.Goldscore.External.HBond>
0.0000

> <Gold.Goldscore.Internal.Correction>
-0.7585

> <Gold.Goldscore.Internal.Vdw.Weighted>
-2.2011

> <Gold.Goldscore.Internal.Torsion.Weighted>
-0.3672

> <Gold.Goldscore.External.Vdw.Weighted>
28.2738

> <Gold.Goldscore.Internal.HBond.Weighted>
0.0000

> <Gold.Goldscore.External.HBond.Weighted>
0.0000

> <Gold.Goldscore.Internal.Correction.Weighted>
-0.7585

> <Gold.Rescore>
     Score     S(PLP)   S(hbond)     S(cho)   S(metal)  DE(clash)   DE(tors)     intcor
     27.76     -30.12       0.00       0.00       0.00       1.05       0.65       ----

> <Gold.PLP.Fitness>
27.7573

> <Gold.PLP.PLP>
-30.1172

> <Gold.PLP.part.hbond>
0.0000

> <Gold.PLP.part.metal>
0.0000

> <Gold.PLP.part.buried>
-1.8172

> <Gold.PLP.part.nonpolar>
-28.7687

> <Gold.PLP.part.repulsive>
0.1683

> <Gold.PLP.ligand.clash>
1.0532

> <Gold.PLP.ligand.torsion>
0.6534

> <Gold.PLP.Chemscore.Hbond>
0.0000

> <Gold.PLP.Chemscore.CHOScore>
0.0000

> <Gold.PLP.Chemscore.Metal>
0.0000

> <Gold.PLP.Chemscore.Internal.Correction>
   9.000000E+99

