#       Name:                GA Fitting Points
#       Creating user name   hitesit
#       Creation time:       Sun Apr 16 22:59:28 2023


#       Fitting Points Used by GA Software.
#

@<TRIPOS>MOLECULE
GA Fitting Points
 39821    0    0
SMALL
NO_CHARGES


@<TRIPOS>ATOM
      1 ****       117.0000 121.7500 164.5000 Du        
      2 ****       117.0000 122.0000 164.5000 Du        
      3 ****       117.0000 122.2500 164.5000 Du        
      4 ****       117.0000 126.0000 138.0000 Du        
      5 ****       117.0000 126.2500 137.7500 Du        
      6 ****       117.0000 126.2500 138.0000 Du        
      7 ****       117.0000 126.2500 138.2500 Du        
      8 ****       117.0000 126.5000 137.5000 Du        
      9 ****       117.0000 126.5000 137.7500 Du        
     10 ****       117.0000 126.5000 138.0000 Du        
     11 ****       117.0000 126.5000 138.2500 Du        
     12 ****       117.0000 126.7500 137.2500 Du        
     13 ****       117.0000 126.7500 137.5000 Du        
     14 ****       117.0000 126.7500 137.7500 Du        
     15 ****       117.0000 126.7500 138.0000 Du        
     16 ****       117.0000 126.7500 138.2500 Du        
     17 ****       117.0000 127.0000 137.2500 Du        
     18 ****       117.0000 127.0000 137.5000 Du        
     19 ****       117.0000 127.0000 137.7500 Du        
     20 ****       117.0000 127.0000 138.0000 Du        
     21 ****       117.0000 127.0000 138.2500 Du        
     22 ****       117.0000 127.2500 137.7500 Du        
     23 ****       117.0000 127.2500 138.0000 Du        
     24 ****       117.0000 128.0000 104.7500 Du        
     25 ****       117.0000 128.0000 105.0000 Du        
     26 ****       117.0000 128.0000 105.2500 Du        
     27 ****       117.0000 128.2500 104.5000 Du        
     28 ****       117.0000 128.2500 104.7500 Du        
     29 ****       117.0000 128.2500 105.0000 Du        
     30 ****       117.0000 128.2500 105.2500 Du        
     31 ****       117.0000 128.2500 105.5000 Du        
     32 ****       117.0000 128.2500 105.7500 Du        
     33 ****       117.0000 128.2500 106.0000 Du        
     34 ****       117.0000 128.5000 104.2500 Du        
     35 ****       117.0000 128.5000 104.5000 Du        
     36 ****       117.0000 128.5000 104.7500 Du        
     37 ****       117.0000 128.5000 105.0000 Du        
     38 ****       117.0000 128.5000 105.2500 Du        
     39 ****       117.0000 128.5000 105.5000 Du        
     40 ****       117.0000 128.5000 105.7500 Du        
     41 ****       117.0000 128.5000 106.0000 Du        
     42 ****       117.0000 128.7500 104.5000 Du        
     43 ****       117.0000 128.7500 104.7500 Du        
     44 ****       117.0000 128.7500 105.0000 Du        
     45 ****       117.0000 128.7500 105.2500 Du        
     46 ****       117.0000 128.7500 105.5000 Du        
     47 ****       117.0000 128.7500 105.7500 Du        
     48 ****       117.0000 128.7500 106.0000 Du        
     49 ****       117.0000 129.0000 104.7500 Du        
     50 ****       117.0000 129.0000 105.0000 Du        
     51 ****       117.0000 129.0000 105.2500 Du        
     52 ****       117.0000 129.0000 105.5000 Du        
     53 ****       117.0000 129.0000 105.7500 Du        
     54 ****       117.0000 129.2500 105.0000 Du        
     55 ****       117.0000 129.2500 105.2500 Du        
     56 ****       117.0000 129.2500 105.5000 Du        
     57 ****       117.0000 129.2500 105.7500 Du        
     58 ****       117.0000 129.2500 126.0000 Du        
     59 ****       117.0000 129.5000 105.0000 Du        
     60 ****       117.0000 129.5000 105.2500 Du        
     61 ****       117.0000 129.5000 105.5000 Du        
     62 ****       117.0000 129.5000 105.7500 Du        
     63 ****       117.0000 129.5000 125.7500 Du        
     64 ****       117.0000 129.5000 126.0000 Du        
     65 ****       117.0000 129.5000 126.2500 Du        
     66 ****       117.0000 129.7500 105.2500 Du        
     67 ****       117.0000 129.7500 105.5000 Du        
     68 ****       117.0000 129.7500 113.5000 Du        
     69 ****       117.0000 129.7500 125.5000 Du        
     70 ****       117.0000 129.7500 125.7500 Du        
     71 ****       117.0000 129.7500 126.0000 Du        
     72 ****       117.0000 129.7500 126.2500 Du        
     73 ****       117.0000 130.0000 113.2500 Du        
     74 ****       117.0000 130.0000 113.5000 Du        
     75 ****       117.0000 130.0000 125.5000 Du        
     76 ****       117.0000 130.0000 125.7500 Du        
     77 ****       117.0000 130.0000 126.0000 Du        
     78 ****       117.0000 130.0000 126.2500 Du        
     79 ****       117.0000 130.0000 126.5000 Du        
     80 ****       117.0000 130.2500 113.2500 Du        
     81 ****       117.0000 130.2500 113.5000 Du        
     82 ****       117.0000 130.2500 125.2500 Du        
     83 ****       117.0000 130.2500 125.5000 Du        
     84 ****       117.0000 130.2500 125.7500 Du        
     85 ****       117.0000 130.2500 126.0000 Du        
     86 ****       117.0000 130.2500 126.2500 Du        
     87 ****       117.0000 130.2500 126.5000 Du        
     88 ****       117.0000 130.2500 126.7500 Du        
     89 ****       117.0000 130.5000 113.2500 Du        
     90 ****       117.0000 130.5000 125.0000 Du        
     91 ****       117.0000 130.5000 125.2500 Du        
     92 ****       117.0000 130.5000 125.5000 Du        
     93 ****       117.0000 130.5000 125.7500 Du        
     94 ****       117.0000 130.5000 126.0000 Du        
     95 ****       117.0000 130.5000 126.2500 Du        
     96 ****       117.0000 130.5000 126.5000 Du        
     97 ****       117.0000 130.7500 124.7500 Du        
     98 ****       117.0000 130.7500 125.0000 Du        
     99 ****       117.0000 130.7500 125.2500 Du        
    100 ****       117.0000 130.7500 125.5000 Du        
    101 ****       117.0000 130.7500 125.7500 Du        
    102 ****       117.0000 130.7500 126.0000 Du        
    103 ****       117.0000 130.7500 126.2500 Du        
    104 ****       117.0000 130.7500 126.5000 Du        
    105 ****       117.0000 131.0000 124.2500 Du        
    106 ****       117.0000 131.0000 124.5000 Du        
    107 ****       117.0000 131.0000 124.7500 Du        
    108 ****       117.0000 131.0000 125.0000 Du        
    109 ****       117.0000 131.0000 125.2500 Du        
    110 ****       117.0000 131.0000 125.5000 Du        
    111 ****       117.0000 131.0000 125.7500 Du        
    112 ****       117.0000 131.0000 126.0000 Du        
    113 ****       117.0000 131.0000 126.2500 Du        
    114 ****       117.0000 131.2500 123.7500 Du        
    115 ****       117.0000 131.2500 124.0000 Du        
    116 ****       117.0000 131.2500 124.2500 Du        
    117 ****       117.0000 131.2500 124.5000 Du        
    118 ****       117.0000 131.2500 124.7500 Du        
    119 ****       117.0000 131.2500 125.0000 Du        
    120 ****       117.0000 131.2500 125.2500 Du        
    121 ****       117.0000 131.2500 125.5000 Du        
    122 ****       117.0000 131.2500 125.7500 Du        
    123 ****       117.0000 131.5000 123.0000 Du        
    124 ****       117.0000 131.5000 123.2500 Du        
    125 ****       117.0000 131.5000 123.5000 Du        
    126 ****       117.0000 131.5000 123.7500 Du        
    127 ****       117.0000 131.5000 124.0000 Du        
    128 ****       117.0000 131.5000 124.2500 Du        
    129 ****       117.0000 131.5000 124.5000 Du        
    130 ****       117.0000 131.5000 124.7500 Du        
    131 ****       117.0000 131.5000 125.0000 Du        
    132 ****       117.0000 131.5000 125.2500 Du        
    133 ****       117.0000 131.5000 125.5000 Du        
    134 ****       117.0000 131.7500 122.7500 Du        
    135 ****       117.0000 131.7500 123.0000 Du        
    136 ****       117.0000 131.7500 123.2500 Du        
    137 ****       117.0000 131.7500 123.5000 Du        
    138 ****       117.0000 131.7500 123.7500 Du        
    139 ****       117.0000 131.7500 124.0000 Du        
    140 ****       117.0000 131.7500 124.2500 Du        
    141 ****       117.0000 131.7500 124.5000 Du        
    142 ****       117.0000 131.7500 124.7500 Du        
    143 ****       117.0000 131.7500 125.0000 Du        
    144 ****       117.0000 131.7500 125.2500 Du        
    145 ****       117.0000 132.0000 122.7500 Du        
    146 ****       117.0000 132.0000 123.0000 Du        
    147 ****       117.0000 132.0000 123.2500 Du        
    148 ****       117.0000 132.0000 123.5000 Du        
    149 ****       117.0000 132.0000 123.7500 Du        
    150 ****       117.0000 132.0000 124.0000 Du        
    151 ****       117.0000 132.0000 124.2500 Du        
    152 ****       117.0000 132.0000 124.5000 Du        
    153 ****       117.0000 132.0000 124.7500 Du        
    154 ****       117.0000 132.0000 125.0000 Du        
    155 ****       117.0000 132.2500 123.0000 Du        
    156 ****       117.0000 132.2500 123.2500 Du        
    157 ****       117.0000 132.2500 123.5000 Du        
    158 ****       117.0000 132.2500 123.7500 Du        
    159 ****       117.0000 132.2500 124.0000 Du        
    160 ****       117.0000 132.2500 124.2500 Du        
    161 ****       117.0000 132.2500 124.5000 Du        
    162 ****       117.0000 132.2500 124.7500 Du        
    163 ****       117.0000 132.2500 125.0000 Du        
    164 ****       117.0000 132.5000 123.0000 Du        
    165 ****       117.0000 132.5000 123.2500 Du        
    166 ****       117.0000 132.5000 123.5000 Du        
    167 ****       117.0000 132.5000 123.7500 Du        
    168 ****       117.0000 132.5000 124.0000 Du        
    169 ****       117.0000 132.5000 124.2500 Du        
    170 ****       117.0000 132.5000 124.5000 Du        
    171 ****       117.0000 132.5000 124.7500 Du        
    172 ****       117.0000 132.7500 123.0000 Du        
    173 ****       117.0000 132.7500 123.2500 Du        
    174 ****       117.0000 132.7500 123.5000 Du        
    175 ****       117.0000 132.7500 123.7500 Du        
    176 ****       117.0000 132.7500 124.0000 Du        
    177 ****       117.0000 132.7500 124.2500 Du        
    178 ****       117.0000 132.7500 124.5000 Du        
    179 ****       117.0000 133.0000 123.0000 Du        
    180 ****       117.0000 133.0000 123.2500 Du        
    181 ****       117.0000 133.0000 123.5000 Du        
    182 ****       117.0000 133.0000 123.7500 Du        
    183 ****       117.0000 133.0000 124.0000 Du        
    184 ****       117.0000 133.0000 124.2500 Du        
    185 ****       117.0000 133.0000 124.5000 Du        
    186 ****       117.0000 133.2500 123.0000 Du        
    187 ****       117.0000 133.2500 123.2500 Du        
    188 ****       117.0000 133.2500 123.5000 Du        
    189 ****       117.0000 133.2500 123.7500 Du        
    190 ****       117.0000 133.2500 124.0000 Du        
    191 ****       117.0000 133.2500 124.2500 Du        
    192 ****       117.0000 133.2500 124.5000 Du        
    193 ****       117.0000 133.5000 122.7500 Du        
    194 ****       117.0000 133.5000 123.0000 Du        
    195 ****       117.0000 133.5000 123.2500 Du        
    196 ****       117.0000 133.5000 123.5000 Du        
    197 ****       117.0000 133.5000 123.7500 Du        
    198 ****       117.0000 133.5000 124.0000 Du        
    199 ****       117.0000 133.5000 124.2500 Du        
    200 ****       117.0000 133.7500 123.0000 Du        
    201 ****       117.0000 133.7500 123.2500 Du        
    202 ****       117.0000 133.7500 123.5000 Du        
    203 ****       117.0000 133.7500 123.7500 Du        
    204 ****       117.0000 133.7500 124.0000 Du        
    205 ****       117.0000 136.0000 167.2500 Du        
    206 ****       117.0000 136.0000 167.5000 Du        
    207 ****       117.0000 136.0000 167.7500 Du        
    208 ****       117.0000 136.0000 168.0000 Du        
    209 ****       117.0000 136.0000 168.2500 Du        
    210 ****       117.0000 136.0000 168.5000 Du        
    211 ****       117.0000 136.0000 168.7500 Du        
    212 ****       117.0000 136.0000 169.0000 Du        
    213 ****       117.0000 136.2500 167.2500 Du        
    214 ****       117.0000 136.2500 167.5000 Du        
    215 ****       117.0000 136.2500 167.7500 Du        
    216 ****       117.0000 136.2500 168.0000 Du        
    217 ****       117.0000 136.2500 168.2500 Du        
    218 ****       117.0000 136.2500 168.5000 Du        
    219 ****       117.0000 136.2500 168.7500 Du        
    220 ****       117.0000 136.2500 169.0000 Du        
    221 ****       117.0000 136.2500 169.2500 Du        
    222 ****       117.0000 136.5000 167.5000 Du        
    223 ****       117.0000 136.5000 167.7500 Du        
    224 ****       117.0000 136.5000 168.0000 Du        
    225 ****       117.0000 136.5000 168.2500 Du        
    226 ****       117.0000 136.5000 168.5000 Du        
    227 ****       117.0000 136.5000 168.7500 Du        
    228 ****       117.0000 136.5000 169.0000 Du        
    229 ****       117.0000 136.5000 169.2500 Du        
    230 ****       117.0000 136.7500 167.5000 Du        
    231 ****       117.0000 136.7500 167.7500 Du        
    232 ****       117.0000 136.7500 168.0000 Du        
    233 ****       117.0000 136.7500 168.2500 Du        
    234 ****       117.0000 136.7500 168.5000 Du        
    235 ****       117.0000 136.7500 168.7500 Du        
    236 ****       117.0000 136.7500 169.0000 Du        
    237 ****       117.0000 136.7500 169.2500 Du        
    238 ****       117.0000 137.0000 167.7500 Du        
    239 ****       117.0000 137.0000 168.0000 Du        
    240 ****       117.0000 137.0000 168.2500 Du        
    241 ****       117.0000 137.0000 168.5000 Du        
    242 ****       117.0000 137.0000 168.7500 Du        
    243 ****       117.0000 137.0000 169.0000 Du        
    244 ****       117.0000 137.0000 169.2500 Du        
    245 ****       117.0000 137.0000 169.5000 Du        
    246 ****       117.0000 137.0000 169.7500 Du        
    247 ****       117.0000 137.2500 167.7500 Du        
    248 ****       117.0000 137.2500 168.0000 Du        
    249 ****       117.0000 137.2500 168.2500 Du        
    250 ****       117.0000 137.2500 168.5000 Du        
    251 ****       117.0000 137.2500 168.7500 Du        
    252 ****       117.0000 137.2500 169.0000 Du        
    253 ****       117.0000 137.2500 169.2500 Du        
    254 ****       117.0000 137.2500 169.5000 Du        
    255 ****       117.0000 137.2500 169.7500 Du        
    256 ****       117.0000 137.2500 170.0000 Du        
    257 ****       117.0000 137.5000 167.7500 Du        
    258 ****       117.0000 137.5000 168.0000 Du        
    259 ****       117.0000 137.5000 168.2500 Du        
    260 ****       117.0000 137.5000 168.5000 Du        
    261 ****       117.0000 137.5000 168.7500 Du        
    262 ****       117.0000 137.5000 169.0000 Du        
    263 ****       117.0000 137.5000 169.2500 Du        
    264 ****       117.0000 137.5000 169.5000 Du        
    265 ****       117.0000 137.5000 169.7500 Du        
    266 ****       117.0000 137.5000 170.0000 Du        
    267 ****       117.0000 137.7500 167.7500 Du        
    268 ****       117.0000 137.7500 168.0000 Du        
    269 ****       117.0000 137.7500 168.2500 Du        
    270 ****       117.0000 137.7500 168.5000 Du        
    271 ****       117.0000 137.7500 168.7500 Du        
    272 ****       117.0000 137.7500 169.0000 Du        
    273 ****       117.0000 137.7500 169.2500 Du        
    274 ****       117.0000 137.7500 169.5000 Du        
    275 ****       117.0000 137.7500 169.7500 Du        
    276 ****       117.0000 137.7500 170.0000 Du        
    277 ****       117.0000 138.0000 168.0000 Du        
    278 ****       117.0000 138.0000 168.2500 Du        
    279 ****       117.0000 138.0000 168.5000 Du        
    280 ****       117.0000 138.0000 168.7500 Du        
    281 ****       117.0000 138.0000 169.0000 Du        
    282 ****       117.0000 138.0000 169.2500 Du        
    283 ****       117.0000 138.0000 169.5000 Du        
    284 ****       117.0000 138.0000 169.7500 Du        
    285 ****       117.0000 138.0000 170.0000 Du        
    286 ****       117.0000 138.2500 168.2500 Du        
    287 ****       117.0000 138.2500 168.5000 Du        
    288 ****       117.0000 138.2500 168.7500 Du        
    289 ****       117.0000 138.2500 169.0000 Du        
    290 ****       117.0000 138.2500 169.2500 Du        
    291 ****       117.0000 138.2500 169.5000 Du        
    292 ****       117.0000 138.5000 168.5000 Du        
    293 ****       117.0000 138.5000 168.7500 Du        
    294 ****       117.0000 138.5000 169.0000 Du        
    295 ****       117.0000 138.5000 169.2500 Du        
    296 ****       117.0000 138.5000 169.5000 Du        
    297 ****       117.0000 138.7500 168.7500 Du        
    298 ****       117.0000 138.7500 169.0000 Du        
    299 ****       117.0000 140.2500 108.7500 Du        
    300 ****       117.0000 140.2500 109.0000 Du        
    301 ****       117.0000 140.2500 109.2500 Du        
    302 ****       117.0000 140.5000 108.2500 Du        
    303 ****       117.0000 140.5000 108.5000 Du        
    304 ****       117.0000 140.5000 108.7500 Du        
    305 ****       117.0000 140.5000 109.0000 Du        
    306 ****       117.0000 140.5000 109.2500 Du        
    307 ****       117.0000 140.7500 108.2500 Du        
    308 ****       117.0000 140.7500 108.5000 Du        
    309 ****       117.0000 140.7500 108.7500 Du        
    310 ****       117.0000 140.7500 109.0000 Du        
    311 ****       117.0000 140.7500 109.2500 Du        
    312 ****       117.0000 141.0000 108.2500 Du        
    313 ****       117.0000 141.0000 108.5000 Du        
    314 ****       117.0000 141.0000 108.7500 Du        
    315 ****       117.0000 141.0000 109.0000 Du        
    316 ****       117.0000 141.2500 108.5000 Du        
    317 ****       117.0000 141.2500 130.0000 Du        
    318 ****       117.0000 141.2500 130.2500 Du        
    319 ****       117.0000 141.2500 159.0000 Du        
    320 ****       117.0000 141.2500 159.2500 Du        
    321 ****       117.0000 141.2500 159.5000 Du        
    322 ****       117.0000 141.5000 129.5000 Du        
    323 ****       117.0000 141.5000 129.7500 Du        
    324 ****       117.0000 141.5000 130.0000 Du        
    325 ****       117.0000 141.5000 130.2500 Du        
    326 ****       117.0000 141.5000 130.5000 Du        
    327 ****       117.0000 141.5000 159.5000 Du        
    328 ****       117.0000 141.7500 129.0000 Du        
    329 ****       117.0000 141.7500 129.2500 Du        
    330 ****       117.0000 141.7500 129.5000 Du        
    331 ****       117.0000 141.7500 129.7500 Du        
    332 ****       117.0000 141.7500 130.0000 Du        
    333 ****       117.0000 141.7500 130.2500 Du        
    334 ****       117.0000 141.7500 130.5000 Du        
    335 ****       117.0000 142.0000 128.5000 Du        
    336 ****       117.0000 142.0000 128.7500 Du        
    337 ****       117.0000 142.0000 129.0000 Du        
    338 ****       117.0000 142.0000 129.2500 Du        
    339 ****       117.0000 142.0000 129.5000 Du        
    340 ****       117.0000 142.0000 129.7500 Du        
    341 ****       117.0000 142.0000 130.0000 Du        
    342 ****       117.0000 142.0000 130.2500 Du        
    343 ****       117.0000 142.0000 130.5000 Du        
    344 ****       117.0000 142.2500 128.2500 Du        
    345 ****       117.0000 142.2500 128.5000 Du        
    346 ****       117.0000 142.2500 128.7500 Du        
    347 ****       117.0000 142.2500 129.0000 Du        
    348 ****       117.0000 142.2500 129.2500 Du        
    349 ****       117.0000 142.2500 129.5000 Du        
    350 ****       117.0000 142.2500 129.7500 Du        
    351 ****       117.0000 142.2500 130.0000 Du        
    352 ****       117.0000 142.2500 130.2500 Du        
    353 ****       117.0000 142.2500 130.5000 Du        
    354 ****       117.0000 142.5000 115.2500 Du        
    355 ****       117.0000 142.5000 115.5000 Du        
    356 ****       117.0000 142.5000 128.5000 Du        
    357 ****       117.0000 142.5000 128.7500 Du        
    358 ****       117.0000 142.5000 129.0000 Du        
    359 ****       117.0000 142.5000 129.2500 Du        
    360 ****       117.0000 142.5000 129.5000 Du        
    361 ****       117.0000 142.5000 129.7500 Du        
    362 ****       117.0000 142.5000 130.0000 Du        
    363 ****       117.0000 142.5000 130.2500 Du        
    364 ****       117.0000 142.5000 130.5000 Du        
    365 ****       117.0000 142.7500 114.7500 Du        
    366 ****       117.0000 142.7500 115.0000 Du        
    367 ****       117.0000 142.7500 115.2500 Du        
    368 ****       117.0000 142.7500 115.5000 Du        
    369 ****       117.0000 142.7500 128.5000 Du        
    370 ****       117.0000 142.7500 128.7500 Du        
    371 ****       117.0000 142.7500 129.0000 Du        
    372 ****       117.0000 142.7500 129.2500 Du        
    373 ****       117.0000 142.7500 129.5000 Du        
    374 ****       117.0000 142.7500 129.7500 Du        
    375 ****       117.0000 142.7500 130.0000 Du        
    376 ****       117.0000 142.7500 130.2500 Du        
    377 ****       117.0000 142.7500 130.5000 Du        
    378 ****       117.0000 143.0000 114.2500 Du        
    379 ****       117.0000 143.0000 114.5000 Du        
    380 ****       117.0000 143.0000 114.7500 Du        
    381 ****       117.0000 143.0000 115.0000 Du        
    382 ****       117.0000 143.0000 115.2500 Du        
    383 ****       117.0000 143.0000 115.5000 Du        
    384 ****       117.0000 143.0000 128.7500 Du        
    385 ****       117.0000 143.0000 129.0000 Du        
    386 ****       117.0000 143.0000 129.2500 Du        
    387 ****       117.0000 143.0000 129.5000 Du        
    388 ****       117.0000 143.0000 129.7500 Du        
    389 ****       117.0000 143.0000 130.0000 Du        
    390 ****       117.0000 143.0000 130.2500 Du        
    391 ****       117.0000 143.0000 130.5000 Du        
    392 ****       117.0000 143.2500 114.2500 Du        
    393 ****       117.0000 143.2500 114.5000 Du        
    394 ****       117.0000 143.2500 114.7500 Du        
    395 ****       117.0000 143.2500 115.0000 Du        
    396 ****       117.0000 143.2500 115.2500 Du        
    397 ****       117.0000 143.2500 115.5000 Du        
    398 ****       117.0000 143.2500 129.2500 Du        
    399 ****       117.0000 143.2500 129.5000 Du        
    400 ****       117.0000 143.2500 129.7500 Du        
    401 ****       117.0000 143.2500 130.0000 Du        
    402 ****       117.0000 143.2500 130.2500 Du        
    403 ****       117.0000 143.5000 114.5000 Du        
    404 ****       117.0000 143.5000 114.7500 Du        
    405 ****       117.0000 143.5000 115.0000 Du        
    406 ****       117.0000 143.5000 115.2500 Du        
    407 ****       117.0000 143.7500 114.5000 Du        
    408 ****       117.0000 143.7500 114.7500 Du        
    409 ****       117.0000 143.7500 115.0000 Du        
    410 ****       117.0000 143.7500 115.2500 Du        
    411 ****       117.0000 147.7500  91.7500 Du        
    412 ****       117.0000 147.7500  92.0000 Du        
    413 ****       117.0000 148.0000  91.5000 Du        
    414 ****       117.0000 148.0000  91.7500 Du        
    415 ****       117.0000 148.0000  92.0000 Du        
    416 ****       117.0000 148.2500  91.2500 Du        
    417 ****       117.0000 148.2500  91.5000 Du        
    418 ****       117.0000 148.2500  91.7500 Du        
    419 ****       117.0000 148.5000  91.5000 Du        
    420 ****       117.0000 148.7500  91.5000 Du        
    421 ****       117.2500 121.7500 164.5000 Du        
    422 ****       117.2500 122.0000 164.5000 Du        
    423 ****       117.2500 122.2500 164.5000 Du        
    424 ****       117.2500 124.7500 126.7500 Du        
    425 ****       117.2500 124.7500 127.0000 Du        
    426 ****       117.2500 125.0000 126.7500 Du        
    427 ****       117.2500 125.0000 127.0000 Du        
    428 ****       117.2500 125.2500 126.7500 Du        
    429 ****       117.2500 125.5000 126.5000 Du        
    430 ****       117.2500 125.7500 126.0000 Du        
    431 ****       117.2500 126.2500 138.0000 Du        
    432 ****       117.2500 126.2500 138.2500 Du        
    433 ****       117.2500 126.5000 137.7500 Du        
    434 ****       117.2500 126.5000 138.0000 Du        
    435 ****       117.2500 126.5000 138.2500 Du        
    436 ****       117.2500 126.7500 137.5000 Du        
    437 ****       117.2500 126.7500 137.7500 Du        
    438 ****       117.2500 126.7500 138.0000 Du        
    439 ****       117.2500 126.7500 138.2500 Du        
    440 ****       117.2500 127.0000 137.7500 Du        
    441 ****       117.2500 127.0000 138.0000 Du        
    442 ****       117.2500 127.0000 138.2500 Du        
    443 ****       117.2500 127.7500 105.2500 Du        
    444 ****       117.2500 128.0000 104.5000 Du        
    445 ****       117.2500 128.0000 104.7500 Du        
    446 ****       117.2500 128.0000 105.0000 Du        
    447 ****       117.2500 128.0000 105.2500 Du        
    448 ****       117.2500 128.0000 105.5000 Du        
    449 ****       117.2500 128.0000 105.7500 Du        
    450 ****       117.2500 128.2500 104.2500 Du        
    451 ****       117.2500 128.2500 104.5000 Du        
    452 ****       117.2500 128.2500 104.7500 Du        
    453 ****       117.2500 128.2500 105.0000 Du        
    454 ****       117.2500 128.2500 105.2500 Du        
    455 ****       117.2500 128.2500 105.5000 Du        
    456 ****       117.2500 128.2500 105.7500 Du        
    457 ****       117.2500 128.5000 104.2500 Du        
    458 ****       117.2500 128.5000 104.5000 Du        
    459 ****       117.2500 128.5000 104.7500 Du        
    460 ****       117.2500 128.5000 105.0000 Du        
    461 ****       117.2500 128.5000 105.2500 Du        
    462 ****       117.2500 128.5000 105.5000 Du        
    463 ****       117.2500 128.5000 105.7500 Du        
    464 ****       117.2500 128.7500 104.5000 Du        
    465 ****       117.2500 128.7500 104.7500 Du        
    466 ****       117.2500 128.7500 105.0000 Du        
    467 ****       117.2500 128.7500 105.2500 Du        
    468 ****       117.2500 128.7500 105.5000 Du        
    469 ****       117.2500 128.7500 105.7500 Du        
    470 ****       117.2500 129.0000 104.7500 Du        
    471 ****       117.2500 129.0000 105.0000 Du        
    472 ****       117.2500 129.0000 105.2500 Du        
    473 ****       117.2500 129.0000 105.5000 Du        
    474 ****       117.2500 129.0000 105.7500 Du        
    475 ****       117.2500 129.2500 105.0000 Du        
    476 ****       117.2500 129.2500 105.2500 Du        
    477 ****       117.2500 129.2500 105.5000 Du        
    478 ****       117.2500 129.5000 105.2500 Du        
    479 ****       117.2500 129.5000 126.0000 Du        
    480 ****       117.2500 129.7500 125.7500 Du        
    481 ****       117.2500 129.7500 126.0000 Du        
    482 ****       117.2500 129.7500 126.2500 Du        
    483 ****       117.2500 130.0000 125.5000 Du        
    484 ****       117.2500 130.0000 125.7500 Du        
    485 ****       117.2500 130.0000 126.0000 Du        
    486 ****       117.2500 130.0000 126.2500 Du        
    487 ****       117.2500 130.0000 126.5000 Du        
    488 ****       117.2500 130.2500 125.2500 Du        
    489 ****       117.2500 130.2500 125.5000 Du        
    490 ****       117.2500 130.2500 125.7500 Du        
    491 ****       117.2500 130.2500 126.0000 Du        
    492 ****       117.2500 130.2500 126.2500 Du        
    493 ****       117.2500 130.2500 126.5000 Du        
    494 ****       117.2500 130.5000 125.0000 Du        
    495 ****       117.2500 130.5000 125.2500 Du        
    496 ****       117.2500 130.5000 125.5000 Du        
    497 ****       117.2500 130.5000 125.7500 Du        
    498 ****       117.2500 130.5000 126.0000 Du        
    499 ****       117.2500 130.5000 126.2500 Du        
    500 ****       117.2500 130.5000 126.5000 Du        
    501 ****       117.2500 130.7500 124.7500 Du        
    502 ****       117.2500 130.7500 125.0000 Du        
    503 ****       117.2500 130.7500 125.2500 Du        
    504 ****       117.2500 130.7500 125.5000 Du        
    505 ****       117.2500 130.7500 125.7500 Du        
    506 ****       117.2500 130.7500 126.0000 Du        
    507 ****       117.2500 130.7500 126.2500 Du        
    508 ****       117.2500 131.0000 124.0000 Du        
    509 ****       117.2500 131.0000 124.2500 Du        
    510 ****       117.2500 131.0000 124.5000 Du        
    511 ****       117.2500 131.0000 124.7500 Du        
    512 ****       117.2500 131.0000 125.0000 Du        
    513 ****       117.2500 131.0000 125.2500 Du        
    514 ****       117.2500 131.0000 125.5000 Du        
    515 ****       117.2500 131.0000 125.7500 Du        
    516 ****       117.2500 131.0000 126.0000 Du        
    517 ****       117.2500 131.2500 123.7500 Du        
    518 ****       117.2500 131.2500 124.0000 Du        
    519 ****       117.2500 131.2500 124.2500 Du        
    520 ****       117.2500 131.2500 124.5000 Du        
    521 ****       117.2500 131.2500 124.7500 Du        
    522 ****       117.2500 131.2500 125.0000 Du        
    523 ****       117.2500 131.2500 125.2500 Du        
    524 ****       117.2500 131.2500 125.5000 Du        
    525 ****       117.2500 131.2500 125.7500 Du        
    526 ****       117.2500 131.5000 123.0000 Du        
    527 ****       117.2500 131.5000 123.2500 Du        
    528 ****       117.2500 131.5000 123.5000 Du        
    529 ****       117.2500 131.5000 123.7500 Du        
    530 ****       117.2500 131.5000 124.0000 Du        
    531 ****       117.2500 131.5000 124.2500 Du        
    532 ****       117.2500 131.5000 124.5000 Du        
    533 ****       117.2500 131.5000 124.7500 Du        
    534 ****       117.2500 131.5000 125.0000 Du        
    535 ****       117.2500 131.5000 125.2500 Du        
    536 ****       117.2500 131.5000 125.5000 Du        
    537 ****       117.2500 131.7500 122.7500 Du        
    538 ****       117.2500 131.7500 123.0000 Du        
    539 ****       117.2500 131.7500 123.2500 Du        
    540 ****       117.2500 131.7500 123.5000 Du        
    541 ****       117.2500 131.7500 123.7500 Du        
    542 ****       117.2500 131.7500 124.0000 Du        
    543 ****       117.2500 131.7500 124.2500 Du        
    544 ****       117.2500 131.7500 124.5000 Du        
    545 ****       117.2500 131.7500 124.7500 Du        
    546 ****       117.2500 131.7500 125.0000 Du        
    547 ****       117.2500 131.7500 125.2500 Du        
    548 ****       117.2500 132.0000 122.5000 Du        
    549 ****       117.2500 132.0000 122.7500 Du        
    550 ****       117.2500 132.0000 123.0000 Du        
    551 ****       117.2500 132.0000 123.2500 Du        
    552 ****       117.2500 132.0000 123.5000 Du        
    553 ****       117.2500 132.0000 123.7500 Du        
    554 ****       117.2500 132.0000 124.0000 Du        
    555 ****       117.2500 132.0000 124.2500 Du        
    556 ****       117.2500 132.0000 124.5000 Du        
    557 ****       117.2500 132.0000 124.7500 Du        
    558 ****       117.2500 132.0000 125.0000 Du        
    559 ****       117.2500 132.2500 122.7500 Du        
    560 ****       117.2500 132.2500 123.0000 Du        
    561 ****       117.2500 132.2500 123.2500 Du        
    562 ****       117.2500 132.2500 123.5000 Du        
    563 ****       117.2500 132.2500 123.7500 Du        
    564 ****       117.2500 132.2500 124.0000 Du        
    565 ****       117.2500 132.2500 124.2500 Du        
    566 ****       117.2500 132.2500 124.5000 Du        
    567 ****       117.2500 132.2500 124.7500 Du        
    568 ****       117.2500 132.5000 122.7500 Du        
    569 ****       117.2500 132.5000 123.0000 Du        
    570 ****       117.2500 132.5000 123.2500 Du        
    571 ****       117.2500 132.5000 123.5000 Du        
    572 ****       117.2500 132.5000 123.7500 Du        
    573 ****       117.2500 132.5000 124.0000 Du        
    574 ****       117.2500 132.5000 124.2500 Du        
    575 ****       117.2500 132.5000 124.5000 Du        
    576 ****       117.2500 132.7500 122.7500 Du        
    577 ****       117.2500 132.7500 123.0000 Du        
    578 ****       117.2500 132.7500 123.2500 Du        
    579 ****       117.2500 132.7500 123.5000 Du        
    580 ****       117.2500 132.7500 123.7500 Du        
    581 ****       117.2500 132.7500 124.0000 Du        
    582 ****       117.2500 132.7500 124.2500 Du        
    583 ****       117.2500 132.7500 124.5000 Du        
    584 ****       117.2500 133.0000 122.7500 Du        
    585 ****       117.2500 133.0000 123.0000 Du        
    586 ****       117.2500 133.0000 123.2500 Du        
    587 ****       117.2500 133.0000 123.5000 Du        
    588 ****       117.2500 133.0000 123.7500 Du        
    589 ****       117.2500 133.0000 124.0000 Du        
    590 ****       117.2500 133.0000 124.2500 Du        
    591 ****       117.2500 133.0000 124.5000 Du        
    592 ****       117.2500 133.2500 122.7500 Du        
    593 ****       117.2500 133.2500 123.0000 Du        
    594 ****       117.2500 133.2500 123.2500 Du        
    595 ****       117.2500 133.2500 123.5000 Du        
    596 ****       117.2500 133.2500 123.7500 Du        
    597 ****       117.2500 133.2500 124.0000 Du        
    598 ****       117.2500 133.2500 124.2500 Du        
    599 ****       117.2500 133.5000 122.7500 Du        
    600 ****       117.2500 133.5000 123.0000 Du        
    601 ****       117.2500 133.5000 123.2500 Du        
    602 ****       117.2500 133.5000 123.5000 Du        
    603 ****       117.2500 133.5000 123.7500 Du        
    604 ****       117.2500 133.5000 124.0000 Du        
    605 ****       117.2500 136.0000 167.5000 Du        
    606 ****       117.2500 136.0000 167.7500 Du        
    607 ****       117.2500 136.0000 168.0000 Du        
    608 ****       117.2500 136.0000 168.2500 Du        
    609 ****       117.2500 136.0000 168.5000 Du        
    610 ****       117.2500 136.0000 168.7500 Du        
    611 ****       117.2500 136.0000 169.0000 Du        
    612 ****       117.2500 136.0000 169.2500 Du        
    613 ****       117.2500 136.2500 167.5000 Du        
    614 ****       117.2500 136.2500 167.7500 Du        
    615 ****       117.2500 136.2500 168.0000 Du        
    616 ****       117.2500 136.2500 168.2500 Du        
    617 ****       117.2500 136.2500 168.5000 Du        
    618 ****       117.2500 136.2500 168.7500 Du        
    619 ****       117.2500 136.2500 169.0000 Du        
    620 ****       117.2500 136.2500 169.2500 Du        
    621 ****       117.2500 136.5000 167.7500 Du        
    622 ****       117.2500 136.5000 168.0000 Du        
    623 ****       117.2500 136.5000 168.2500 Du        
    624 ****       117.2500 136.5000 168.5000 Du        
    625 ****       117.2500 136.5000 168.7500 Du        
    626 ****       117.2500 136.5000 169.0000 Du        
    627 ****       117.2500 136.5000 169.2500 Du        
    628 ****       117.2500 136.7500 167.7500 Du        
    629 ****       117.2500 136.7500 168.0000 Du        
    630 ****       117.2500 136.7500 168.2500 Du        
    631 ****       117.2500 136.7500 168.5000 Du        
    632 ****       117.2500 136.7500 168.7500 Du        
    633 ****       117.2500 136.7500 169.0000 Du        
    634 ****       117.2500 136.7500 169.2500 Du        
    635 ****       117.2500 136.7500 169.5000 Du        
    636 ****       117.2500 136.7500 169.7500 Du        
    637 ****       117.2500 136.7500 170.0000 Du        
    638 ****       117.2500 137.0000 167.7500 Du        
    639 ****       117.2500 137.0000 168.0000 Du        
    640 ****       117.2500 137.0000 168.2500 Du        
    641 ****       117.2500 137.0000 168.5000 Du        
    642 ****       117.2500 137.0000 168.7500 Du        
    643 ****       117.2500 137.0000 169.0000 Du        
    644 ****       117.2500 137.0000 169.2500 Du        
    645 ****       117.2500 137.0000 169.5000 Du        
    646 ****       117.2500 137.0000 169.7500 Du        
    647 ****       117.2500 137.0000 170.0000 Du        
    648 ****       117.2500 137.2500 167.7500 Du        
    649 ****       117.2500 137.2500 168.0000 Du        
    650 ****       117.2500 137.2500 168.2500 Du        
    651 ****       117.2500 137.2500 168.5000 Du        
    652 ****       117.2500 137.2500 168.7500 Du        
    653 ****       117.2500 137.2500 169.0000 Du        
    654 ****       117.2500 137.2500 169.2500 Du        
    655 ****       117.2500 137.2500 169.5000 Du        
    656 ****       117.2500 137.2500 169.7500 Du        
    657 ****       117.2500 137.2500 170.0000 Du        
    658 ****       117.2500 137.5000 167.7500 Du        
    659 ****       117.2500 137.5000 168.0000 Du        
    660 ****       117.2500 137.5000 168.2500 Du        
    661 ****       117.2500 137.5000 168.5000 Du        
    662 ****       117.2500 137.5000 168.7500 Du        
    663 ****       117.2500 137.5000 169.0000 Du        
    664 ****       117.2500 137.5000 169.2500 Du        
    665 ****       117.2500 137.5000 169.5000 Du        
    666 ****       117.2500 137.5000 169.7500 Du        
    667 ****       117.2500 137.5000 170.0000 Du        
    668 ****       117.2500 137.7500 167.7500 Du        
    669 ****       117.2500 137.7500 168.0000 Du        
    670 ****       117.2500 137.7500 168.2500 Du        
    671 ****       117.2500 137.7500 168.5000 Du        
    672 ****       117.2500 137.7500 168.7500 Du        
    673 ****       117.2500 137.7500 169.0000 Du        
    674 ****       117.2500 137.7500 169.2500 Du        
    675 ****       117.2500 137.7500 169.5000 Du        
    676 ****       117.2500 137.7500 169.7500 Du        
    677 ****       117.2500 137.7500 170.0000 Du        
    678 ****       117.2500 138.0000 168.0000 Du        
    679 ****       117.2500 138.0000 168.2500 Du        
    680 ****       117.2500 138.0000 168.5000 Du        
    681 ****       117.2500 138.0000 168.7500 Du        
    682 ****       117.2500 138.0000 169.0000 Du        
    683 ****       117.2500 138.0000 169.2500 Du        
    684 ****       117.2500 138.0000 169.5000 Du        
    685 ****       117.2500 138.0000 169.7500 Du        
    686 ****       117.2500 138.0000 170.0000 Du        
    687 ****       117.2500 138.2500 168.2500 Du        
    688 ****       117.2500 138.2500 168.5000 Du        
    689 ****       117.2500 138.2500 168.7500 Du        
    690 ****       117.2500 138.2500 169.0000 Du        
    691 ****       117.2500 138.2500 169.2500 Du        
    692 ****       117.2500 138.2500 169.5000 Du        
    693 ****       117.2500 138.5000 168.5000 Du        
    694 ****       117.2500 138.5000 168.7500 Du        
    695 ****       117.2500 138.5000 169.0000 Du        
    696 ****       117.2500 138.5000 169.2500 Du        
    697 ****       117.2500 138.5000 169.5000 Du        
    698 ****       117.2500 138.7500 168.7500 Du        
    699 ****       117.2500 138.7500 169.0000 Du        
    700 ****       117.2500 140.2500 108.7500 Du        
    701 ****       117.2500 140.2500 109.0000 Du        
    702 ****       117.2500 140.2500 109.2500 Du        
    703 ****       117.2500 140.5000 108.2500 Du        
    704 ****       117.2500 140.5000 108.5000 Du        
    705 ****       117.2500 140.5000 108.7500 Du        
    706 ****       117.2500 140.5000 109.0000 Du        
    707 ****       117.2500 140.5000 109.2500 Du        
    708 ****       117.2500 140.7500 108.2500 Du        
    709 ****       117.2500 140.7500 108.5000 Du        
    710 ****       117.2500 140.7500 108.7500 Du        
    711 ****       117.2500 140.7500 109.0000 Du        
    712 ****       117.2500 141.0000 108.5000 Du        
    713 ****       117.2500 141.0000 108.7500 Du        
    714 ****       117.2500 141.0000 158.7500 Du        
    715 ****       117.2500 141.0000 159.0000 Du        
    716 ****       117.2500 141.0000 159.2500 Du        
    717 ****       117.2500 141.0000 159.5000 Du        
    718 ****       117.2500 141.2500 159.0000 Du        
    719 ****       117.2500 141.2500 159.2500 Du        
    720 ****       117.2500 141.2500 159.5000 Du        
    721 ****       117.2500 141.2500 159.7500 Du        
    722 ****       117.2500 141.5000 129.7500 Du        
    723 ****       117.2500 141.5000 130.0000 Du        
    724 ****       117.2500 141.5000 130.2500 Du        
    725 ****       117.2500 141.5000 159.5000 Du        
    726 ****       117.2500 141.5000 159.7500 Du        
    727 ****       117.2500 141.5000 160.0000 Du        
    728 ****       117.2500 141.7500 129.0000 Du        
    729 ****       117.2500 141.7500 129.2500 Du        
    730 ****       117.2500 141.7500 129.5000 Du        
    731 ****       117.2500 141.7500 129.7500 Du        
    732 ****       117.2500 141.7500 130.0000 Du        
    733 ****       117.2500 141.7500 130.2500 Du        
    734 ****       117.2500 142.0000 128.5000 Du        
    735 ****       117.2500 142.0000 128.7500 Du        
    736 ****       117.2500 142.0000 129.0000 Du        
    737 ****       117.2500 142.0000 129.2500 Du        
    738 ****       117.2500 142.0000 129.5000 Du        
    739 ****       117.2500 142.0000 129.7500 Du        
    740 ****       117.2500 142.0000 130.0000 Du        
    741 ****       117.2500 142.0000 130.2500 Du        
    742 ****       117.2500 142.2500 128.2500 Du        
    743 ****       117.2500 142.2500 128.5000 Du        
    744 ****       117.2500 142.2500 128.7500 Du        
    745 ****       117.2500 142.2500 129.0000 Du        
    746 ****       117.2500 142.2500 129.2500 Du        
    747 ****       117.2500 142.2500 129.5000 Du        
    748 ****       117.2500 142.2500 129.7500 Du        
    749 ****       117.2500 142.2500 130.0000 Du        
    750 ****       117.2500 142.2500 130.2500 Du        
    751 ****       117.2500 142.5000 115.0000 Du        
    752 ****       117.2500 142.5000 115.2500 Du        
    753 ****       117.2500 142.5000 128.5000 Du        
    754 ****       117.2500 142.5000 128.7500 Du        
    755 ****       117.2500 142.5000 129.0000 Du        
    756 ****       117.2500 142.5000 129.2500 Du        
    757 ****       117.2500 142.5000 129.5000 Du        
    758 ****       117.2500 142.5000 129.7500 Du        
    759 ****       117.2500 142.5000 130.0000 Du        
    760 ****       117.2500 142.5000 130.2500 Du        
    761 ****       117.2500 142.7500 114.7500 Du        
    762 ****       117.2500 142.7500 115.0000 Du        
    763 ****       117.2500 142.7500 115.2500 Du        
    764 ****       117.2500 142.7500 115.5000 Du        
    765 ****       117.2500 142.7500 128.5000 Du        
    766 ****       117.2500 142.7500 128.7500 Du        
    767 ****       117.2500 142.7500 129.0000 Du        
    768 ****       117.2500 142.7500 129.2500 Du        
    769 ****       117.2500 142.7500 129.5000 Du        
    770 ****       117.2500 142.7500 129.7500 Du        
    771 ****       117.2500 142.7500 130.0000 Du        
    772 ****       117.2500 142.7500 130.2500 Du        
    773 ****       117.2500 143.0000 114.2500 Du        
    774 ****       117.2500 143.0000 114.5000 Du        
    775 ****       117.2500 143.0000 114.7500 Du        
    776 ****       117.2500 143.0000 115.0000 Du        
    777 ****       117.2500 143.0000 115.2500 Du        
    778 ****       117.2500 143.0000 115.5000 Du        
    779 ****       117.2500 143.0000 128.5000 Du        
    780 ****       117.2500 143.0000 128.7500 Du        
    781 ****       117.2500 143.0000 129.0000 Du        
    782 ****       117.2500 143.0000 129.2500 Du        
    783 ****       117.2500 143.0000 129.5000 Du        
    784 ****       117.2500 143.0000 129.7500 Du        
    785 ****       117.2500 143.0000 130.0000 Du        
    786 ****       117.2500 143.0000 130.2500 Du        
    787 ****       117.2500 143.2500 114.2500 Du        
    788 ****       117.2500 143.2500 114.5000 Du        
    789 ****       117.2500 143.2500 114.7500 Du        
    790 ****       117.2500 143.2500 115.0000 Du        
    791 ****       117.2500 143.2500 115.2500 Du        
    792 ****       117.2500 143.2500 115.5000 Du        
    793 ****       117.2500 143.2500 128.7500 Du        
    794 ****       117.2500 143.2500 129.0000 Du        
    795 ****       117.2500 143.2500 129.2500 Du        
    796 ****       117.2500 143.2500 129.5000 Du        
    797 ****       117.2500 143.2500 129.7500 Du        
    798 ****       117.2500 143.2500 130.0000 Du        
    799 ****       117.2500 143.2500 130.2500 Du        
    800 ****       117.2500 143.5000 114.5000 Du        
    801 ****       117.2500 143.5000 114.7500 Du        
    802 ****       117.2500 143.5000 115.0000 Du        
    803 ****       117.2500 143.5000 115.2500 Du        
    804 ****       117.2500 143.7500 114.5000 Du        
    805 ****       117.2500 143.7500 114.7500 Du        
    806 ****       117.2500 143.7500 115.0000 Du        
    807 ****       117.2500 143.7500 115.2500 Du        
    808 ****       117.2500 144.0000 115.0000 Du        
    809 ****       117.2500 147.7500  91.7500 Du        
    810 ****       117.2500 148.0000  91.5000 Du        
    811 ****       117.2500 148.0000  91.7500 Du        
    812 ****       117.2500 148.2500  91.5000 Du        
    813 ****       117.2500 153.7500 155.7500 Du        
    814 ****       117.2500 154.0000 155.7500 Du        
    815 ****       117.2500 154.0000 156.0000 Du        
    816 ****       117.2500 162.0000 159.5000 Du        
    817 ****       117.2500 162.0000 159.7500 Du        
    818 ****       117.2500 162.2500 159.5000 Du        
    819 ****       117.2500 162.2500 159.7500 Du        
    820 ****       117.5000 122.0000 164.5000 Du        
    821 ****       117.5000 122.2500 164.5000 Du        
    822 ****       117.5000 124.5000 126.7500 Du        
    823 ****       117.5000 124.5000 127.0000 Du        
    824 ****       117.5000 124.5000 127.2500 Du        
    825 ****       117.5000 124.5000 127.5000 Du        
    826 ****       117.5000 124.5000 127.7500 Du        
    827 ****       117.5000 124.7500 126.2500 Du        
    828 ****       117.5000 124.7500 126.5000 Du        
    829 ****       117.5000 124.7500 126.7500 Du        
    830 ****       117.5000 124.7500 127.0000 Du        
    831 ****       117.5000 124.7500 127.2500 Du        
    832 ****       117.5000 124.7500 127.5000 Du        
    833 ****       117.5000 125.0000 126.0000 Du        
    834 ****       117.5000 125.0000 126.2500 Du        
    835 ****       117.5000 125.0000 126.5000 Du        
    836 ****       117.5000 125.0000 126.7500 Du        
    837 ****       117.5000 125.0000 127.0000 Du        
    838 ****       117.5000 125.0000 127.2500 Du        
    839 ****       117.5000 125.2500 125.7500 Du        
    840 ****       117.5000 125.2500 126.0000 Du        
    841 ****       117.5000 125.2500 126.2500 Du        
    842 ****       117.5000 125.2500 126.5000 Du        
    843 ****       117.5000 125.2500 126.7500 Du        
    844 ****       117.5000 125.2500 127.0000 Du        
    845 ****       117.5000 125.5000 125.7500 Du        
    846 ****       117.5000 125.5000 126.0000 Du        
    847 ****       117.5000 125.5000 126.2500 Du        
    848 ****       117.5000 125.5000 126.5000 Du        
    849 ****       117.5000 125.5000 126.7500 Du        
    850 ****       117.5000 125.7500 125.7500 Du        
    851 ****       117.5000 125.7500 126.0000 Du        
    852 ****       117.5000 125.7500 126.2500 Du        
    853 ****       117.5000 125.7500 126.5000 Du        
    854 ****       117.5000 126.0000 125.7500 Du        
    855 ****       117.5000 126.0000 126.0000 Du        
    856 ****       117.5000 126.0000 126.2500 Du        
    857 ****       117.5000 126.5000 137.7500 Du        
    858 ****       117.5000 126.5000 138.0000 Du        
    859 ****       117.5000 126.5000 138.2500 Du        
    860 ****       117.5000 126.7500 137.7500 Du        
    861 ****       117.5000 126.7500 138.0000 Du        
    862 ****       117.5000 126.7500 138.2500 Du        
    863 ****       117.5000 127.7500 104.7500 Du        
    864 ****       117.5000 127.7500 105.0000 Du        
    865 ****       117.5000 127.7500 105.2500 Du        
    866 ****       117.5000 127.7500 105.5000 Du        
    867 ****       117.5000 127.7500 105.7500 Du        
    868 ****       117.5000 128.0000 104.2500 Du        
    869 ****       117.5000 128.0000 104.5000 Du        
    870 ****       117.5000 128.0000 104.7500 Du        
    871 ****       117.5000 128.0000 105.0000 Du        
    872 ****       117.5000 128.0000 105.2500 Du        
    873 ****       117.5000 128.0000 105.5000 Du        
    874 ****       117.5000 128.0000 105.7500 Du        
    875 ****       117.5000 128.2500 104.2500 Du        
    876 ****       117.5000 128.2500 104.5000 Du        
    877 ****       117.5000 128.2500 104.7500 Du        
    878 ****       117.5000 128.2500 105.0000 Du        
    879 ****       117.5000 128.2500 105.2500 Du        
    880 ****       117.5000 128.2500 105.5000 Du        
    881 ****       117.5000 128.2500 105.7500 Du        
    882 ****       117.5000 128.5000 104.2500 Du        
    883 ****       117.5000 128.5000 104.5000 Du        
    884 ****       117.5000 128.5000 104.7500 Du        
    885 ****       117.5000 128.5000 105.0000 Du        
    886 ****       117.5000 128.5000 105.2500 Du        
    887 ****       117.5000 128.5000 105.5000 Du        
    888 ****       117.5000 128.5000 105.7500 Du        
    889 ****       117.5000 128.7500 104.5000 Du        
    890 ****       117.5000 128.7500 104.7500 Du        
    891 ****       117.5000 128.7500 105.0000 Du        
    892 ****       117.5000 128.7500 105.2500 Du        
    893 ****       117.5000 128.7500 105.5000 Du        
    894 ****       117.5000 129.0000 104.7500 Du        
    895 ****       117.5000 129.0000 105.0000 Du        
    896 ****       117.5000 129.0000 105.2500 Du        
    897 ****       117.5000 129.0000 105.5000 Du        
    898 ****       117.5000 129.2500 105.0000 Du        
    899 ****       117.5000 129.2500 105.2500 Du        
    900 ****       117.5000 129.5000 126.0000 Du        
    901 ****       117.5000 129.7500 125.7500 Du        
    902 ****       117.5000 129.7500 126.0000 Du        
    903 ****       117.5000 129.7500 126.2500 Du        
    904 ****       117.5000 130.0000 125.5000 Du        
    905 ****       117.5000 130.0000 125.7500 Du        
    906 ****       117.5000 130.0000 126.0000 Du        
    907 ****       117.5000 130.0000 126.2500 Du        
    908 ****       117.5000 130.0000 126.5000 Du        
    909 ****       117.5000 130.2500  90.7500 Du        
    910 ****       117.5000 130.2500 125.2500 Du        
    911 ****       117.5000 130.2500 125.5000 Du        
    912 ****       117.5000 130.2500 125.7500 Du        
    913 ****       117.5000 130.2500 126.0000 Du        
    914 ****       117.5000 130.2500 126.2500 Du        
    915 ****       117.5000 130.2500 126.5000 Du        
    916 ****       117.5000 130.5000  90.2500 Du        
    917 ****       117.5000 130.5000  90.5000 Du        
    918 ****       117.5000 130.5000  90.7500 Du        
    919 ****       117.5000 130.5000  91.0000 Du        
    920 ****       117.5000 130.5000 125.0000 Du        
    921 ****       117.5000 130.5000 125.2500 Du        
    922 ****       117.5000 130.5000 125.5000 Du        
    923 ****       117.5000 130.5000 125.7500 Du        
    924 ****       117.5000 130.5000 126.0000 Du        
    925 ****       117.5000 130.5000 126.2500 Du        
    926 ****       117.5000 130.5000 126.5000 Du        
    927 ****       117.5000 130.7500  90.0000 Du        
    928 ****       117.5000 130.7500  90.2500 Du        
    929 ****       117.5000 130.7500  90.5000 Du        
    930 ****       117.5000 130.7500  90.7500 Du        
    931 ****       117.5000 130.7500  91.0000 Du        
    932 ****       117.5000 130.7500 124.5000 Du        
    933 ****       117.5000 130.7500 124.7500 Du        
    934 ****       117.5000 130.7500 125.0000 Du        
    935 ****       117.5000 130.7500 125.2500 Du        
    936 ****       117.5000 130.7500 125.5000 Du        
    937 ****       117.5000 130.7500 125.7500 Du        
    938 ****       117.5000 130.7500 126.0000 Du        
    939 ****       117.5000 130.7500 126.2500 Du        
    940 ****       117.5000 130.7500 126.5000 Du        
    941 ****       117.5000 131.0000  90.2500 Du        
    942 ****       117.5000 131.0000  90.5000 Du        
    943 ****       117.5000 131.0000  90.7500 Du        
    944 ****       117.5000 131.0000  91.0000 Du        
    945 ****       117.5000 131.0000 124.0000 Du        
    946 ****       117.5000 131.0000 124.2500 Du        
    947 ****       117.5000 131.0000 124.5000 Du        
    948 ****       117.5000 131.0000 124.7500 Du        
    949 ****       117.5000 131.0000 125.0000 Du        
    950 ****       117.5000 131.0000 125.2500 Du        
    951 ****       117.5000 131.0000 125.5000 Du        
    952 ****       117.5000 131.0000 125.7500 Du        
    953 ****       117.5000 131.0000 126.0000 Du        
    954 ****       117.5000 131.2500  90.7500 Du        
    955 ****       117.5000 131.2500  91.0000 Du        
    956 ****       117.5000 131.2500 123.7500 Du        
    957 ****       117.5000 131.2500 124.0000 Du        
    958 ****       117.5000 131.2500 124.2500 Du        
    959 ****       117.5000 131.2500 124.5000 Du        
    960 ****       117.5000 131.2500 124.7500 Du        
    961 ****       117.5000 131.2500 125.0000 Du        
    962 ****       117.5000 131.2500 125.2500 Du        
    963 ****       117.5000 131.2500 125.5000 Du        
    964 ****       117.5000 131.2500 125.7500 Du        
    965 ****       117.5000 131.5000 122.2500 Du        
    966 ****       117.5000 131.5000 122.5000 Du        
    967 ****       117.5000 131.5000 122.7500 Du        
    968 ****       117.5000 131.5000 123.0000 Du        
    969 ****       117.5000 131.5000 123.2500 Du        
    970 ****       117.5000 131.5000 123.5000 Du        
    971 ****       117.5000 131.5000 123.7500 Du        
    972 ****       117.5000 131.5000 124.0000 Du        
    973 ****       117.5000 131.5000 124.2500 Du        
    974 ****       117.5000 131.5000 124.5000 Du        
    975 ****       117.5000 131.5000 124.7500 Du        
    976 ****       117.5000 131.5000 125.0000 Du        
    977 ****       117.5000 131.5000 125.2500 Du        
    978 ****       117.5000 131.7500 122.2500 Du        
    979 ****       117.5000 131.7500 122.5000 Du        
    980 ****       117.5000 131.7500 122.7500 Du        
    981 ****       117.5000 131.7500 123.0000 Du        
    982 ****       117.5000 131.7500 123.2500 Du        
    983 ****       117.5000 131.7500 123.5000 Du        
    984 ****       117.5000 131.7500 123.7500 Du        
    985 ****       117.5000 131.7500 124.0000 Du        
    986 ****       117.5000 131.7500 124.2500 Du        
    987 ****       117.5000 131.7500 124.5000 Du        
    988 ****       117.5000 131.7500 124.7500 Du        
    989 ****       117.5000 131.7500 125.0000 Du        
    990 ****       117.5000 131.7500 125.2500 Du        
    991 ****       117.5000 132.0000 122.2500 Du        
    992 ****       117.5000 132.0000 122.5000 Du        
    993 ****       117.5000 132.0000 122.7500 Du        
    994 ****       117.5000 132.0000 123.0000 Du        
    995 ****       117.5000 132.0000 123.2500 Du        
    996 ****       117.5000 132.0000 123.5000 Du        
    997 ****       117.5000 132.0000 123.7500 Du        
    998 ****       117.5000 132.0000 124.0000 Du        
    999 ****       117.5000 132.0000 124.2500 Du        
   1000 ****       117.5000 132.0000 124.5000 Du        
   1001 ****       117.5000 132.0000 124.7500 Du        
   1002 ****       117.5000 132.0000 125.0000 Du        
   1003 ****       117.5000 132.2500 122.2500 Du        
   1004 ****       117.5000 132.2500 122.5000 Du        
   1005 ****       117.5000 132.2500 122.7500 Du        
   1006 ****       117.5000 132.2500 123.0000 Du        
   1007 ****       117.5000 132.2500 123.2500 Du        
   1008 ****       117.5000 132.2500 123.5000 Du        
   1009 ****       117.5000 132.2500 123.7500 Du        
   1010 ****       117.5000 132.2500 124.0000 Du        
   1011 ****       117.5000 132.2500 124.2500 Du        
   1012 ****       117.5000 132.2500 124.5000 Du        
   1013 ****       117.5000 132.2500 124.7500 Du        
   1014 ****       117.5000 132.5000 122.5000 Du        
   1015 ****       117.5000 132.5000 122.7500 Du        
   1016 ****       117.5000 132.5000 123.0000 Du        
   1017 ****       117.5000 132.5000 123.2500 Du        
   1018 ****       117.5000 132.5000 123.5000 Du        
   1019 ****       117.5000 132.5000 123.7500 Du        
   1020 ****       117.5000 132.5000 124.0000 Du        
   1021 ****       117.5000 132.5000 124.2500 Du        
   1022 ****       117.5000 132.5000 124.5000 Du        
   1023 ****       117.5000 132.5000 124.7500 Du        
   1024 ****       117.5000 132.7500 122.5000 Du        
   1025 ****       117.5000 132.7500 122.7500 Du        
   1026 ****       117.5000 132.7500 123.0000 Du        
   1027 ****       117.5000 132.7500 123.2500 Du        
   1028 ****       117.5000 132.7500 123.5000 Du        
   1029 ****       117.5000 132.7500 123.7500 Du        
   1030 ****       117.5000 132.7500 124.0000 Du        
   1031 ****       117.5000 132.7500 124.2500 Du        
   1032 ****       117.5000 132.7500 124.5000 Du        
   1033 ****       117.5000 133.0000 122.5000 Du        
   1034 ****       117.5000 133.0000 122.7500 Du        
   1035 ****       117.5000 133.0000 123.0000 Du        
   1036 ****       117.5000 133.0000 123.2500 Du        
   1037 ****       117.5000 133.0000 123.5000 Du        
   1038 ****       117.5000 133.0000 123.7500 Du        
   1039 ****       117.5000 133.0000 124.0000 Du        
   1040 ****       117.5000 133.0000 124.2500 Du        
   1041 ****       117.5000 133.2500 122.7500 Du        
   1042 ****       117.5000 133.2500 123.0000 Du        
   1043 ****       117.5000 133.2500 123.2500 Du        
   1044 ****       117.5000 133.2500 123.5000 Du        
   1045 ****       117.5000 133.2500 123.7500 Du        
   1046 ****       117.5000 133.2500 124.0000 Du        
   1047 ****       117.5000 133.5000 122.7500 Du        
   1048 ****       117.5000 133.5000 123.0000 Du        
   1049 ****       117.5000 133.5000 123.2500 Du        
   1050 ****       117.5000 135.0000 170.0000 Du        
   1051 ****       117.5000 135.2500 169.7500 Du        
   1052 ****       117.5000 135.2500 170.0000 Du        
   1053 ****       117.5000 135.5000 170.0000 Du        
   1054 ****       117.5000 135.7500 169.7500 Du        
   1055 ****       117.5000 135.7500 170.0000 Du        
   1056 ****       117.5000 136.0000 167.7500 Du        
   1057 ****       117.5000 136.0000 168.0000 Du        
   1058 ****       117.5000 136.0000 168.2500 Du        
   1059 ****       117.5000 136.0000 168.5000 Du        
   1060 ****       117.5000 136.0000 168.7500 Du        
   1061 ****       117.5000 136.0000 169.0000 Du        
   1062 ****       117.5000 136.0000 169.2500 Du        
   1063 ****       117.5000 136.0000 169.5000 Du        
   1064 ****       117.5000 136.0000 169.7500 Du        
   1065 ****       117.5000 136.0000 170.0000 Du        
   1066 ****       117.5000 136.2500 167.7500 Du        
   1067 ****       117.5000 136.2500 168.0000 Du        
   1068 ****       117.5000 136.2500 168.2500 Du        
   1069 ****       117.5000 136.2500 168.5000 Du        
   1070 ****       117.5000 136.2500 168.7500 Du        
   1071 ****       117.5000 136.2500 169.0000 Du        
   1072 ****       117.5000 136.2500 169.2500 Du        
   1073 ****       117.5000 136.2500 169.5000 Du        
   1074 ****       117.5000 136.2500 169.7500 Du        
   1075 ****       117.5000 136.2500 170.0000 Du        
   1076 ****       117.5000 136.5000 167.7500 Du        
   1077 ****       117.5000 136.5000 168.0000 Du        
   1078 ****       117.5000 136.5000 168.2500 Du        
   1079 ****       117.5000 136.5000 168.5000 Du        
   1080 ****       117.5000 136.5000 168.7500 Du        
   1081 ****       117.5000 136.5000 169.0000 Du        
   1082 ****       117.5000 136.5000 169.2500 Du        
   1083 ****       117.5000 136.5000 169.7500 Du        
   1084 ****       117.5000 136.5000 170.0000 Du        
   1085 ****       117.5000 136.7500 167.7500 Du        
   1086 ****       117.5000 136.7500 168.0000 Du        
   1087 ****       117.5000 136.7500 168.2500 Du        
   1088 ****       117.5000 136.7500 168.5000 Du        
   1089 ****       117.5000 136.7500 168.7500 Du        
   1090 ****       117.5000 136.7500 169.0000 Du        
   1091 ****       117.5000 136.7500 169.2500 Du        
   1092 ****       117.5000 136.7500 169.5000 Du        
   1093 ****       117.5000 136.7500 169.7500 Du        
   1094 ****       117.5000 136.7500 170.0000 Du        
   1095 ****       117.5000 137.0000 168.0000 Du        
   1096 ****       117.5000 137.0000 168.2500 Du        
   1097 ****       117.5000 137.0000 168.5000 Du        
   1098 ****       117.5000 137.0000 168.7500 Du        
   1099 ****       117.5000 137.0000 169.0000 Du        
   1100 ****       117.5000 137.0000 169.2500 Du        
   1101 ****       117.5000 137.0000 169.5000 Du        
   1102 ****       117.5000 137.0000 169.7500 Du        
   1103 ****       117.5000 137.0000 170.0000 Du        
   1104 ****       117.5000 137.2500 168.0000 Du        
   1105 ****       117.5000 137.2500 168.2500 Du        
   1106 ****       117.5000 137.2500 168.5000 Du        
   1107 ****       117.5000 137.2500 168.7500 Du        
   1108 ****       117.5000 137.2500 169.0000 Du        
   1109 ****       117.5000 137.2500 169.2500 Du        
   1110 ****       117.5000 137.2500 169.5000 Du        
   1111 ****       117.5000 137.2500 169.7500 Du        
   1112 ****       117.5000 137.2500 170.0000 Du        
   1113 ****       117.5000 137.5000 168.0000 Du        
   1114 ****       117.5000 137.5000 168.2500 Du        
   1115 ****       117.5000 137.5000 168.5000 Du        
   1116 ****       117.5000 137.5000 168.7500 Du        
   1117 ****       117.5000 137.5000 169.0000 Du        
   1118 ****       117.5000 137.5000 169.2500 Du        
   1119 ****       117.5000 137.5000 169.5000 Du        
   1120 ****       117.5000 137.5000 169.7500 Du        
   1121 ****       117.5000 137.5000 170.0000 Du        
   1122 ****       117.5000 137.7500 168.0000 Du        
   1123 ****       117.5000 137.7500 168.2500 Du        
   1124 ****       117.5000 137.7500 168.5000 Du        
   1125 ****       117.5000 137.7500 168.7500 Du        
   1126 ****       117.5000 137.7500 169.0000 Du        
   1127 ****       117.5000 137.7500 169.2500 Du        
   1128 ****       117.5000 137.7500 169.5000 Du        
   1129 ****       117.5000 137.7500 169.7500 Du        
   1130 ****       117.5000 137.7500 170.0000 Du        
   1131 ****       117.5000 138.0000 168.0000 Du        
   1132 ****       117.5000 138.0000 168.2500 Du        
   1133 ****       117.5000 138.0000 168.5000 Du        
   1134 ****       117.5000 138.0000 168.7500 Du        
   1135 ****       117.5000 138.0000 169.0000 Du        
   1136 ****       117.5000 138.0000 169.2500 Du        
   1137 ****       117.5000 138.0000 169.5000 Du        
   1138 ****       117.5000 138.0000 169.7500 Du        
   1139 ****       117.5000 138.0000 170.0000 Du        
   1140 ****       117.5000 138.2500 168.2500 Du        
   1141 ****       117.5000 138.2500 168.5000 Du        
   1142 ****       117.5000 138.2500 168.7500 Du        
   1143 ****       117.5000 138.2500 169.0000 Du        
   1144 ****       117.5000 138.2500 169.2500 Du        
   1145 ****       117.5000 138.2500 169.5000 Du        
   1146 ****       117.5000 138.5000 168.2500 Du        
   1147 ****       117.5000 138.5000 168.5000 Du        
   1148 ****       117.5000 138.5000 168.7500 Du        
   1149 ****       117.5000 138.5000 169.0000 Du        
   1150 ****       117.5000 138.5000 169.2500 Du        
   1151 ****       117.5000 138.5000 169.5000 Du        
   1152 ****       117.5000 138.7500 168.5000 Du        
   1153 ****       117.5000 138.7500 168.7500 Du        
   1154 ****       117.5000 138.7500 169.0000 Du        
   1155 ****       117.5000 138.7500 169.2500 Du        
   1156 ****       117.5000 140.2500 108.5000 Du        
   1157 ****       117.5000 140.2500 108.7500 Du        
   1158 ****       117.5000 140.2500 109.0000 Du        
   1159 ****       117.5000 140.5000 108.2500 Du        
   1160 ****       117.5000 140.5000 108.5000 Du        
   1161 ****       117.5000 140.5000 108.7500 Du        
   1162 ****       117.5000 140.5000 109.0000 Du        
   1163 ****       117.5000 140.7500 108.5000 Du        
   1164 ****       117.5000 140.7500 108.7500 Du        
   1165 ****       117.5000 140.7500 158.7500 Du        
   1166 ****       117.5000 141.0000 158.7500 Du        
   1167 ****       117.5000 141.0000 159.0000 Du        
   1168 ****       117.5000 141.0000 159.2500 Du        
   1169 ****       117.5000 141.0000 159.5000 Du        
   1170 ****       117.5000 141.2500 159.0000 Du        
   1171 ****       117.5000 141.2500 159.2500 Du        
   1172 ****       117.5000 141.2500 159.5000 Du        
   1173 ****       117.5000 141.2500 159.7500 Du        
   1174 ****       117.5000 141.5000 159.5000 Du        
   1175 ****       117.5000 141.5000 159.7500 Du        
   1176 ****       117.5000 141.5000 160.0000 Du        
   1177 ****       117.5000 141.7500 129.0000 Du        
   1178 ****       117.5000 141.7500 129.2500 Du        
   1179 ****       117.5000 141.7500 129.5000 Du        
   1180 ****       117.5000 141.7500 129.7500 Du        
   1181 ****       117.5000 141.7500 130.0000 Du        
   1182 ****       117.5000 141.7500 159.7500 Du        
   1183 ****       117.5000 141.7500 160.0000 Du        
   1184 ****       117.5000 142.0000 128.5000 Du        
   1185 ****       117.5000 142.0000 128.7500 Du        
   1186 ****       117.5000 142.0000 129.0000 Du        
   1187 ****       117.5000 142.0000 129.2500 Du        
   1188 ****       117.5000 142.0000 129.5000 Du        
   1189 ****       117.5000 142.0000 129.7500 Du        
   1190 ****       117.5000 142.0000 130.0000 Du        
   1191 ****       117.5000 142.2500 128.2500 Du        
   1192 ****       117.5000 142.2500 128.5000 Du        
   1193 ****       117.5000 142.2500 128.7500 Du        
   1194 ****       117.5000 142.2500 129.0000 Du        
   1195 ****       117.5000 142.2500 129.2500 Du        
   1196 ****       117.5000 142.2500 129.5000 Du        
   1197 ****       117.5000 142.2500 129.7500 Du        
   1198 ****       117.5000 142.2500 130.0000 Du        
   1199 ****       117.5000 142.5000 115.0000 Du        
   1200 ****       117.5000 142.5000 115.2500 Du        
   1201 ****       117.5000 142.5000 128.2500 Du        
   1202 ****       117.5000 142.5000 128.5000 Du        
   1203 ****       117.5000 142.5000 128.7500 Du        
   1204 ****       117.5000 142.5000 129.0000 Du        
   1205 ****       117.5000 142.5000 129.2500 Du        
   1206 ****       117.5000 142.5000 129.5000 Du        
   1207 ****       117.5000 142.5000 129.7500 Du        
   1208 ****       117.5000 142.5000 130.0000 Du        
   1209 ****       117.5000 142.7500 114.5000 Du        
   1210 ****       117.5000 142.7500 114.7500 Du        
   1211 ****       117.5000 142.7500 115.0000 Du        
   1212 ****       117.5000 142.7500 115.2500 Du        
   1213 ****       117.5000 142.7500 115.5000 Du        
   1214 ****       117.5000 142.7500 128.2500 Du        
   1215 ****       117.5000 142.7500 128.5000 Du        
   1216 ****       117.5000 142.7500 128.7500 Du        
   1217 ****       117.5000 142.7500 129.0000 Du        
   1218 ****       117.5000 142.7500 129.2500 Du        
   1219 ****       117.5000 142.7500 129.5000 Du        
   1220 ****       117.5000 142.7500 129.7500 Du        
   1221 ****       117.5000 142.7500 130.0000 Du        
   1222 ****       117.5000 143.0000 114.2500 Du        
   1223 ****       117.5000 143.0000 114.5000 Du        
   1224 ****       117.5000 143.0000 114.7500 Du        
   1225 ****       117.5000 143.0000 115.0000 Du        
   1226 ****       117.5000 143.0000 115.2500 Du        
   1227 ****       117.5000 143.0000 115.5000 Du        
   1228 ****       117.5000 143.0000 128.2500 Du        
   1229 ****       117.5000 143.0000 128.5000 Du        
   1230 ****       117.5000 143.0000 128.7500 Du        
   1231 ****       117.5000 143.0000 129.0000 Du        
   1232 ****       117.5000 143.0000 129.2500 Du        
   1233 ****       117.5000 143.0000 129.5000 Du        
   1234 ****       117.5000 143.0000 129.7500 Du        
   1235 ****       117.5000 143.0000 130.0000 Du        
   1236 ****       117.5000 143.2500 114.2500 Du        
   1237 ****       117.5000 143.2500 114.5000 Du        
   1238 ****       117.5000 143.2500 114.7500 Du        
   1239 ****       117.5000 143.2500 115.0000 Du        
   1240 ****       117.5000 143.2500 115.2500 Du        
   1241 ****       117.5000 143.2500 115.5000 Du        
   1242 ****       117.5000 143.2500 128.2500 Du        
   1243 ****       117.5000 143.2500 128.5000 Du        
   1244 ****       117.5000 143.2500 128.7500 Du        
   1245 ****       117.5000 143.2500 129.0000 Du        
   1246 ****       117.5000 143.2500 129.2500 Du        
   1247 ****       117.5000 143.2500 129.5000 Du        
   1248 ****       117.5000 143.2500 129.7500 Du        
   1249 ****       117.5000 143.5000 114.5000 Du        
   1250 ****       117.5000 143.5000 114.7500 Du        
   1251 ****       117.5000 143.5000 115.0000 Du        
   1252 ****       117.5000 143.5000 115.2500 Du        
   1253 ****       117.5000 143.7500 114.5000 Du        
   1254 ****       117.5000 143.7500 114.7500 Du        
   1255 ****       117.5000 143.7500 115.0000 Du        
   1256 ****       117.5000 143.7500 115.2500 Du        
   1257 ****       117.5000 144.0000 114.7500 Du        
   1258 ****       117.5000 144.0000 115.0000 Du        
   1259 ****       117.5000 144.0000 115.2500 Du        
   1260 ****       117.5000 144.0000 162.7500 Du        
   1261 ****       117.5000 144.2500 162.7500 Du        
   1262 ****       117.5000 144.2500 163.0000 Du        
   1263 ****       117.5000 144.5000 163.0000 Du        
   1264 ****       117.5000 144.5000 163.2500 Du        
   1265 ****       117.5000 144.7500 163.2500 Du        
   1266 ****       117.5000 144.7500 163.5000 Du        
   1267 ****       117.5000 145.0000 163.5000 Du        
   1268 ****       117.5000 153.2500 155.2500 Du        
   1269 ****       117.5000 153.5000 155.0000 Du        
   1270 ****       117.5000 153.5000 155.2500 Du        
   1271 ****       117.5000 153.5000 155.5000 Du        
   1272 ****       117.5000 153.7500 155.0000 Du        
   1273 ****       117.5000 153.7500 155.2500 Du        
   1274 ****       117.5000 153.7500 155.5000 Du        
   1275 ****       117.5000 153.7500 155.7500 Du        
   1276 ****       117.5000 154.0000 155.0000 Du        
   1277 ****       117.5000 154.0000 155.2500 Du        
   1278 ****       117.5000 154.0000 155.5000 Du        
   1279 ****       117.5000 154.0000 155.7500 Du        
   1280 ****       117.5000 154.0000 156.0000 Du        
   1281 ****       117.5000 154.2500 155.2500 Du        
   1282 ****       117.5000 154.2500 155.5000 Du        
   1283 ****       117.5000 154.2500 155.7500 Du        
   1284 ****       117.5000 154.2500 156.0000 Du        
   1285 ****       117.5000 162.0000 159.5000 Du        
   1286 ****       117.5000 162.0000 159.7500 Du        
   1287 ****       117.5000 162.0000 160.0000 Du        
   1288 ****       117.5000 162.2500 159.5000 Du        
   1289 ****       117.5000 162.2500 159.7500 Du        
   1290 ****       117.5000 162.2500 160.0000 Du        
   1291 ****       117.7500 122.0000 164.5000 Du        
   1292 ****       117.7500 124.5000 126.5000 Du        
   1293 ****       117.7500 124.5000 126.7500 Du        
   1294 ****       117.7500 124.5000 127.0000 Du        
   1295 ****       117.7500 124.5000 127.2500 Du        
   1296 ****       117.7500 124.5000 127.5000 Du        
   1297 ****       117.7500 124.7500 126.0000 Du        
   1298 ****       117.7500 124.7500 126.2500 Du        
   1299 ****       117.7500 124.7500 126.5000 Du        
   1300 ****       117.7500 124.7500 126.7500 Du        
   1301 ****       117.7500 124.7500 127.0000 Du        
   1302 ****       117.7500 124.7500 127.2500 Du        
   1303 ****       117.7500 125.0000 125.7500 Du        
   1304 ****       117.7500 125.0000 126.0000 Du        
   1305 ****       117.7500 125.0000 126.2500 Du        
   1306 ****       117.7500 125.0000 126.5000 Du        
   1307 ****       117.7500 125.0000 126.7500 Du        
   1308 ****       117.7500 125.0000 127.0000 Du        
   1309 ****       117.7500 125.0000 127.2500 Du        
   1310 ****       117.7500 125.2500 125.7500 Du        
   1311 ****       117.7500 125.2500 126.0000 Du        
   1312 ****       117.7500 125.2500 126.2500 Du        
   1313 ****       117.7500 125.2500 126.5000 Du        
   1314 ****       117.7500 125.2500 126.7500 Du        
   1315 ****       117.7500 125.2500 127.0000 Du        
   1316 ****       117.7500 125.5000 125.7500 Du        
   1317 ****       117.7500 125.5000 126.0000 Du        
   1318 ****       117.7500 125.5000 126.2500 Du        
   1319 ****       117.7500 125.5000 126.5000 Du        
   1320 ****       117.7500 125.5000 126.7500 Du        
   1321 ****       117.7500 125.7500 125.7500 Du        
   1322 ****       117.7500 125.7500 126.0000 Du        
   1323 ****       117.7500 125.7500 126.2500 Du        
   1324 ****       117.7500 125.7500 126.5000 Du        
   1325 ****       117.7500 126.0000 125.7500 Du        
   1326 ****       117.7500 126.0000 126.0000 Du        
   1327 ****       117.7500 126.0000 126.2500 Du        
   1328 ****       117.7500 127.5000 105.2500 Du        
   1329 ****       117.7500 127.5000 105.5000 Du        
   1330 ****       117.7500 127.7500 104.2500 Du        
   1331 ****       117.7500 127.7500 104.5000 Du        
   1332 ****       117.7500 127.7500 104.7500 Du        
   1333 ****       117.7500 127.7500 105.0000 Du        
   1334 ****       117.7500 127.7500 105.2500 Du        
   1335 ****       117.7500 127.7500 105.5000 Du        
   1336 ****       117.7500 128.0000 104.0000 Du        
   1337 ****       117.7500 128.0000 104.2500 Du        
   1338 ****       117.7500 128.0000 104.5000 Du        
   1339 ****       117.7500 128.0000 104.7500 Du        
   1340 ****       117.7500 128.0000 105.0000 Du        
   1341 ****       117.7500 128.0000 105.2500 Du        
   1342 ****       117.7500 128.0000 105.5000 Du        
   1343 ****       117.7500 128.2500 104.0000 Du        
   1344 ****       117.7500 128.2500 104.2500 Du        
   1345 ****       117.7500 128.2500 104.5000 Du        
   1346 ****       117.7500 128.2500 104.7500 Du        
   1347 ****       117.7500 128.2500 105.0000 Du        
   1348 ****       117.7500 128.2500 105.2500 Du        
   1349 ****       117.7500 128.2500 105.5000 Du        
   1350 ****       117.7500 128.5000 104.2500 Du        
   1351 ****       117.7500 128.5000 104.5000 Du        
   1352 ****       117.7500 128.5000 104.7500 Du        
   1353 ****       117.7500 128.5000 105.0000 Du        
   1354 ****       117.7500 128.5000 105.2500 Du        
   1355 ****       117.7500 128.5000 105.5000 Du        
   1356 ****       117.7500 128.7500 104.5000 Du        
   1357 ****       117.7500 128.7500 104.7500 Du        
   1358 ****       117.7500 128.7500 105.0000 Du        
   1359 ****       117.7500 128.7500 105.2500 Du        
   1360 ****       117.7500 128.7500 105.5000 Du        
   1361 ****       117.7500 129.0000 104.7500 Du        
   1362 ****       117.7500 129.0000 105.0000 Du        
   1363 ****       117.7500 129.0000 105.2500 Du        
   1364 ****       117.7500 129.7500 125.7500 Du        
   1365 ****       117.7500 129.7500 126.0000 Du        
   1366 ****       117.7500 130.0000  90.5000 Du        
   1367 ****       117.7500 130.0000  90.7500 Du        
   1368 ****       117.7500 130.0000  91.0000 Du        
   1369 ****       117.7500 130.0000 125.5000 Du        
   1370 ****       117.7500 130.0000 125.7500 Du        
   1371 ****       117.7500 130.0000 126.0000 Du        
   1372 ****       117.7500 130.0000 126.2500 Du        
   1373 ****       117.7500 130.2500  90.2500 Du        
   1374 ****       117.7500 130.2500  90.5000 Du        
   1375 ****       117.7500 130.2500  90.7500 Du        
   1376 ****       117.7500 130.2500  91.0000 Du        
   1377 ****       117.7500 130.2500 125.2500 Du        
   1378 ****       117.7500 130.2500 125.5000 Du        
   1379 ****       117.7500 130.2500 125.7500 Du        
   1380 ****       117.7500 130.2500 126.0000 Du        
   1381 ****       117.7500 130.2500 126.2500 Du        
   1382 ****       117.7500 130.2500 126.5000 Du        
   1383 ****       117.7500 130.5000  90.0000 Du        
   1384 ****       117.7500 130.5000  90.2500 Du        
   1385 ****       117.7500 130.5000  90.5000 Du        
   1386 ****       117.7500 130.5000  90.7500 Du        
   1387 ****       117.7500 130.5000  91.0000 Du        
   1388 ****       117.7500 130.5000 125.0000 Du        
   1389 ****       117.7500 130.5000 125.2500 Du        
   1390 ****       117.7500 130.5000 125.5000 Du        
   1391 ****       117.7500 130.5000 125.7500 Du        
   1392 ****       117.7500 130.5000 126.0000 Du        
   1393 ****       117.7500 130.5000 126.2500 Du        
   1394 ****       117.7500 130.5000 126.5000 Du        
   1395 ****       117.7500 130.7500  89.7500 Du        
   1396 ****       117.7500 130.7500  90.0000 Du        
   1397 ****       117.7500 130.7500  90.2500 Du        
   1398 ****       117.7500 130.7500  90.5000 Du        
   1399 ****       117.7500 130.7500  90.7500 Du        
   1400 ****       117.7500 130.7500  91.0000 Du        
   1401 ****       117.7500 130.7500 124.7500 Du        
   1402 ****       117.7500 130.7500 125.0000 Du        
   1403 ****       117.7500 130.7500 125.2500 Du        
   1404 ****       117.7500 130.7500 125.5000 Du        
   1405 ****       117.7500 130.7500 125.7500 Du        
   1406 ****       117.7500 130.7500 126.0000 Du        
   1407 ****       117.7500 130.7500 126.2500 Du        
   1408 ****       117.7500 131.0000  89.7500 Du        
   1409 ****       117.7500 131.0000  90.0000 Du        
   1410 ****       117.7500 131.0000  90.2500 Du        
   1411 ****       117.7500 131.0000  90.5000 Du        
   1412 ****       117.7500 131.0000  90.7500 Du        
   1413 ****       117.7500 131.0000  91.0000 Du        
   1414 ****       117.7500 131.0000 124.0000 Du        
   1415 ****       117.7500 131.0000 124.2500 Du        
   1416 ****       117.7500 131.0000 124.5000 Du        
   1417 ****       117.7500 131.0000 124.7500 Du        
   1418 ****       117.7500 131.0000 125.0000 Du        
   1419 ****       117.7500 131.0000 125.2500 Du        
   1420 ****       117.7500 131.0000 125.5000 Du        
   1421 ****       117.7500 131.0000 125.7500 Du        
   1422 ****       117.7500 131.0000 126.0000 Du        
   1423 ****       117.7500 131.2500 123.5000 Du        
   1424 ****       117.7500 131.2500 123.7500 Du        
   1425 ****       117.7500 131.2500 124.0000 Du        
   1426 ****       117.7500 131.2500 124.2500 Du        
   1427 ****       117.7500 131.2500 124.5000 Du        
   1428 ****       117.7500 131.2500 124.7500 Du        
   1429 ****       117.7500 131.2500 125.0000 Du        
   1430 ****       117.7500 131.2500 125.2500 Du        
   1431 ****       117.7500 131.2500 125.5000 Du        
   1432 ****       117.7500 131.2500 125.7500 Du        
   1433 ****       117.7500 131.5000 122.0000 Du        
   1434 ****       117.7500 131.5000 122.2500 Du        
   1435 ****       117.7500 131.5000 122.5000 Du        
   1436 ****       117.7500 131.5000 122.7500 Du        
   1437 ****       117.7500 131.5000 123.0000 Du        
   1438 ****       117.7500 131.5000 123.2500 Du        
   1439 ****       117.7500 131.5000 123.5000 Du        
   1440 ****       117.7500 131.5000 123.7500 Du        
   1441 ****       117.7500 131.5000 124.0000 Du        
   1442 ****       117.7500 131.5000 124.2500 Du        
   1443 ****       117.7500 131.5000 124.5000 Du        
   1444 ****       117.7500 131.5000 124.7500 Du        
   1445 ****       117.7500 131.5000 125.0000 Du        
   1446 ****       117.7500 131.5000 125.2500 Du        
   1447 ****       117.7500 131.7500 122.0000 Du        
   1448 ****       117.7500 131.7500 122.2500 Du        
   1449 ****       117.7500 131.7500 122.5000 Du        
   1450 ****       117.7500 131.7500 122.7500 Du        
   1451 ****       117.7500 131.7500 123.0000 Du        
   1452 ****       117.7500 131.7500 123.2500 Du        
   1453 ****       117.7500 131.7500 123.5000 Du        
   1454 ****       117.7500 131.7500 123.7500 Du        
   1455 ****       117.7500 131.7500 124.0000 Du        
   1456 ****       117.7500 131.7500 124.2500 Du        
   1457 ****       117.7500 131.7500 124.5000 Du        
   1458 ****       117.7500 131.7500 124.7500 Du        
   1459 ****       117.7500 131.7500 125.0000 Du        
   1460 ****       117.7500 132.0000 122.0000 Du        
   1461 ****       117.7500 132.0000 122.2500 Du        
   1462 ****       117.7500 132.0000 122.5000 Du        
   1463 ****       117.7500 132.0000 122.7500 Du        
   1464 ****       117.7500 132.0000 123.0000 Du        
   1465 ****       117.7500 132.0000 123.2500 Du        
   1466 ****       117.7500 132.0000 123.5000 Du        
   1467 ****       117.7500 132.0000 123.7500 Du        
   1468 ****       117.7500 132.0000 124.0000 Du        
   1469 ****       117.7500 132.0000 124.2500 Du        
   1470 ****       117.7500 132.0000 124.5000 Du        
   1471 ****       117.7500 132.0000 124.7500 Du        
   1472 ****       117.7500 132.0000 125.0000 Du        
   1473 ****       117.7500 132.2500 122.0000 Du        
   1474 ****       117.7500 132.2500 122.2500 Du        
   1475 ****       117.7500 132.2500 122.5000 Du        
   1476 ****       117.7500 132.2500 122.7500 Du        
   1477 ****       117.7500 132.2500 123.0000 Du        
   1478 ****       117.7500 132.2500 123.2500 Du        
   1479 ****       117.7500 132.2500 123.5000 Du        
   1480 ****       117.7500 132.2500 123.7500 Du        
   1481 ****       117.7500 132.2500 124.0000 Du        
   1482 ****       117.7500 132.2500 124.2500 Du        
   1483 ****       117.7500 132.2500 124.5000 Du        
   1484 ****       117.7500 132.2500 124.7500 Du        
   1485 ****       117.7500 132.5000 122.2500 Du        
   1486 ****       117.7500 132.5000 122.5000 Du        
   1487 ****       117.7500 132.5000 122.7500 Du        
   1488 ****       117.7500 132.5000 123.0000 Du        
   1489 ****       117.7500 132.5000 123.2500 Du        
   1490 ****       117.7500 132.5000 123.5000 Du        
   1491 ****       117.7500 132.5000 123.7500 Du        
   1492 ****       117.7500 132.5000 124.0000 Du        
   1493 ****       117.7500 132.5000 124.2500 Du        
   1494 ****       117.7500 132.5000 124.5000 Du        
   1495 ****       117.7500 132.7500 122.2500 Du        
   1496 ****       117.7500 132.7500 122.5000 Du        
   1497 ****       117.7500 132.7500 122.7500 Du        
   1498 ****       117.7500 132.7500 123.0000 Du        
   1499 ****       117.7500 132.7500 123.2500 Du        
   1500 ****       117.7500 132.7500 123.5000 Du        
   1501 ****       117.7500 132.7500 123.7500 Du        
   1502 ****       117.7500 132.7500 124.0000 Du        
   1503 ****       117.7500 132.7500 124.2500 Du        
   1504 ****       117.7500 132.7500 124.5000 Du        
   1505 ****       117.7500 133.0000 122.2500 Du        
   1506 ****       117.7500 133.0000 122.5000 Du        
   1507 ****       117.7500 133.0000 122.7500 Du        
   1508 ****       117.7500 133.0000 123.0000 Du        
   1509 ****       117.7500 133.0000 123.2500 Du        
   1510 ****       117.7500 133.0000 123.5000 Du        
   1511 ****       117.7500 133.0000 123.7500 Du        
   1512 ****       117.7500 133.0000 124.0000 Du        
   1513 ****       117.7500 133.0000 124.2500 Du        
   1514 ****       117.7500 133.2500 122.5000 Du        
   1515 ****       117.7500 133.2500 122.7500 Du        
   1516 ****       117.7500 133.2500 123.0000 Du        
   1517 ****       117.7500 133.2500 123.2500 Du        
   1518 ****       117.7500 133.2500 123.5000 Du        
   1519 ****       117.7500 133.2500 123.7500 Du        
   1520 ****       117.7500 135.0000 138.7500 Du        
   1521 ****       117.7500 135.0000 139.0000 Du        
   1522 ****       117.7500 135.0000 139.2500 Du        
   1523 ****       117.7500 135.0000 170.0000 Du        
   1524 ****       117.7500 135.2500 138.7500 Du        
   1525 ****       117.7500 135.2500 139.0000 Du        
   1526 ****       117.7500 135.2500 139.2500 Du        
   1527 ****       117.7500 135.2500 169.7500 Du        
   1528 ****       117.7500 135.2500 170.0000 Du        
   1529 ****       117.7500 135.5000 138.7500 Du        
   1530 ****       117.7500 135.5000 139.0000 Du        
   1531 ****       117.7500 135.5000 160.0000 Du        
   1532 ****       117.7500 135.5000 169.5000 Du        
   1533 ****       117.7500 135.5000 169.7500 Du        
   1534 ****       117.7500 135.5000 170.0000 Du        
   1535 ****       117.7500 135.7500 169.0000 Du        
   1536 ****       117.7500 135.7500 169.2500 Du        
   1537 ****       117.7500 135.7500 169.5000 Du        
   1538 ****       117.7500 135.7500 169.7500 Du        
   1539 ****       117.7500 135.7500 170.0000 Du        
   1540 ****       117.7500 136.0000 168.0000 Du        
   1541 ****       117.7500 136.0000 168.2500 Du        
   1542 ****       117.7500 136.0000 168.5000 Du        
   1543 ****       117.7500 136.0000 168.7500 Du        
   1544 ****       117.7500 136.0000 169.0000 Du        
   1545 ****       117.7500 136.0000 169.2500 Du        
   1546 ****       117.7500 136.0000 169.5000 Du        
   1547 ****       117.7500 136.0000 169.7500 Du        
   1548 ****       117.7500 136.0000 170.0000 Du        
   1549 ****       117.7500 136.2500 168.0000 Du        
   1550 ****       117.7500 136.2500 168.2500 Du        
   1551 ****       117.7500 136.2500 168.5000 Du        
   1552 ****       117.7500 136.2500 168.7500 Du        
   1553 ****       117.7500 136.2500 169.0000 Du        
   1554 ****       117.7500 136.2500 169.2500 Du        
   1555 ****       117.7500 136.2500 169.5000 Du        
   1556 ****       117.7500 136.2500 169.7500 Du        
   1557 ****       117.7500 136.2500 170.0000 Du        
   1558 ****       117.7500 136.5000 168.2500 Du        
   1559 ****       117.7500 136.5000 168.5000 Du        
   1560 ****       117.7500 136.5000 168.7500 Du        
   1561 ****       117.7500 136.5000 169.0000 Du        
   1562 ****       117.7500 136.5000 169.2500 Du        
   1563 ****       117.7500 136.5000 169.5000 Du        
   1564 ****       117.7500 136.5000 169.7500 Du        
   1565 ****       117.7500 136.5000 170.0000 Du        
   1566 ****       117.7500 136.7500 168.2500 Du        
   1567 ****       117.7500 136.7500 168.5000 Du        
   1568 ****       117.7500 136.7500 168.7500 Du        
   1569 ****       117.7500 136.7500 169.0000 Du        
   1570 ****       117.7500 136.7500 169.2500 Du        
   1571 ****       117.7500 136.7500 169.5000 Du        
   1572 ****       117.7500 136.7500 169.7500 Du        
   1573 ****       117.7500 136.7500 170.0000 Du        
   1574 ****       117.7500 137.0000 168.7500 Du        
   1575 ****       117.7500 137.0000 169.0000 Du        
   1576 ****       117.7500 137.0000 169.2500 Du        
   1577 ****       117.7500 137.0000 169.5000 Du        
   1578 ****       117.7500 137.0000 169.7500 Du        
   1579 ****       117.7500 137.0000 170.0000 Du        
   1580 ****       117.7500 137.2500 168.7500 Du        
   1581 ****       117.7500 137.2500 169.0000 Du        
   1582 ****       117.7500 137.2500 169.2500 Du        
   1583 ****       117.7500 137.2500 169.5000 Du        
   1584 ****       117.7500 137.2500 169.7500 Du        
   1585 ****       117.7500 137.2500 170.0000 Du        
   1586 ****       117.7500 137.5000 168.5000 Du        
   1587 ****       117.7500 137.5000 168.7500 Du        
   1588 ****       117.7500 137.5000 169.0000 Du        
   1589 ****       117.7500 137.5000 169.2500 Du        
   1590 ****       117.7500 137.5000 169.5000 Du        
   1591 ****       117.7500 137.5000 169.7500 Du        
   1592 ****       117.7500 137.5000 170.0000 Du        
   1593 ****       117.7500 137.7500 168.5000 Du        
   1594 ****       117.7500 137.7500 168.7500 Du        
   1595 ****       117.7500 137.7500 169.0000 Du        
   1596 ****       117.7500 137.7500 169.2500 Du        
   1597 ****       117.7500 137.7500 169.5000 Du        
   1598 ****       117.7500 137.7500 169.7500 Du        
   1599 ****       117.7500 137.7500 170.0000 Du        
   1600 ****       117.7500 138.0000 168.2500 Du        
   1601 ****       117.7500 138.0000 168.5000 Du        
   1602 ****       117.7500 138.0000 168.7500 Du        
   1603 ****       117.7500 138.0000 169.0000 Du        
   1604 ****       117.7500 138.0000 169.2500 Du        
   1605 ****       117.7500 138.0000 169.5000 Du        
   1606 ****       117.7500 138.0000 169.7500 Du        
   1607 ****       117.7500 138.0000 170.0000 Du        
   1608 ****       117.7500 138.2500 168.2500 Du        
   1609 ****       117.7500 138.2500 168.5000 Du        
   1610 ****       117.7500 138.2500 168.7500 Du        
   1611 ****       117.7500 138.2500 169.0000 Du        
   1612 ****       117.7500 138.2500 169.2500 Du        
   1613 ****       117.7500 138.2500 169.5000 Du        
   1614 ****       117.7500 138.5000 168.5000 Du        
   1615 ****       117.7500 138.5000 168.7500 Du        
   1616 ****       117.7500 138.5000 169.0000 Du        
   1617 ****       117.7500 138.5000 169.2500 Du        
   1618 ****       117.7500 138.5000 169.5000 Du        
   1619 ****       117.7500 138.7500 168.7500 Du        
   1620 ****       117.7500 138.7500 169.0000 Du        
   1621 ****       117.7500 138.7500 169.2500 Du        
   1622 ****       117.7500 140.2500 108.5000 Du        
   1623 ****       117.7500 140.2500 108.7500 Du        
   1624 ****       117.7500 140.2500 109.0000 Du        
   1625 ****       117.7500 140.5000 108.5000 Du        
   1626 ****       117.7500 140.5000 108.7500 Du        
   1627 ****       117.7500 140.5000 158.7500 Du        
   1628 ****       117.7500 140.7500 158.5000 Du        
   1629 ****       117.7500 140.7500 158.7500 Du        
   1630 ****       117.7500 140.7500 159.0000 Du        
   1631 ****       117.7500 140.7500 159.2500 Du        
   1632 ****       117.7500 141.0000 158.7500 Du        
   1633 ****       117.7500 141.0000 159.0000 Du        
   1634 ****       117.7500 141.0000 159.2500 Du        
   1635 ****       117.7500 141.0000 159.5000 Du        
   1636 ****       117.7500 141.0000 159.7500 Du        
   1637 ****       117.7500 141.2500 158.7500 Du        
   1638 ****       117.7500 141.2500 159.0000 Du        
   1639 ****       117.7500 141.2500 159.2500 Du        
   1640 ****       117.7500 141.2500 159.5000 Du        
   1641 ****       117.7500 141.2500 159.7500 Du        
   1642 ****       117.7500 141.5000 159.5000 Du        
   1643 ****       117.7500 141.5000 159.7500 Du        
   1644 ****       117.7500 141.5000 160.0000 Du        
   1645 ****       117.7500 141.7500 159.7500 Du        
   1646 ****       117.7500 141.7500 160.0000 Du        
   1647 ****       117.7500 142.0000 128.7500 Du        
   1648 ****       117.7500 142.0000 129.0000 Du        
   1649 ****       117.7500 142.0000 129.2500 Du        
   1650 ****       117.7500 142.0000 129.5000 Du        
   1651 ****       117.7500 142.2500 128.5000 Du        
   1652 ****       117.7500 142.2500 128.7500 Du        
   1653 ****       117.7500 142.2500 129.0000 Du        
   1654 ****       117.7500 142.2500 129.2500 Du        
   1655 ****       117.7500 142.2500 129.5000 Du        
   1656 ****       117.7500 142.5000 115.0000 Du        
   1657 ****       117.7500 142.5000 128.2500 Du        
   1658 ****       117.7500 142.5000 128.5000 Du        
   1659 ****       117.7500 142.5000 128.7500 Du        
   1660 ****       117.7500 142.5000 129.0000 Du        
   1661 ****       117.7500 142.5000 129.2500 Du        
   1662 ****       117.7500 142.5000 129.5000 Du        
   1663 ****       117.7500 142.7500 114.5000 Du        
   1664 ****       117.7500 142.7500 114.7500 Du        
   1665 ****       117.7500 142.7500 115.0000 Du        
   1666 ****       117.7500 142.7500 115.2500 Du        
   1667 ****       117.7500 142.7500 128.2500 Du        
   1668 ****       117.7500 142.7500 128.5000 Du        
   1669 ****       117.7500 142.7500 128.7500 Du        
   1670 ****       117.7500 142.7500 129.0000 Du        
   1671 ****       117.7500 142.7500 129.2500 Du        
   1672 ****       117.7500 142.7500 129.5000 Du        
   1673 ****       117.7500 143.0000 114.2500 Du        
   1674 ****       117.7500 143.0000 114.5000 Du        
   1675 ****       117.7500 143.0000 114.7500 Du        
   1676 ****       117.7500 143.0000 115.0000 Du        
   1677 ****       117.7500 143.0000 115.2500 Du        
   1678 ****       117.7500 143.0000 115.5000 Du        
   1679 ****       117.7500 143.0000 128.2500 Du        
   1680 ****       117.7500 143.0000 128.5000 Du        
   1681 ****       117.7500 143.0000 128.7500 Du        
   1682 ****       117.7500 143.0000 129.0000 Du        
   1683 ****       117.7500 143.0000 129.2500 Du        
   1684 ****       117.7500 143.0000 129.5000 Du        
   1685 ****       117.7500 143.2500 114.2500 Du        
   1686 ****       117.7500 143.2500 114.5000 Du        
   1687 ****       117.7500 143.2500 114.7500 Du        
   1688 ****       117.7500 143.2500 115.0000 Du        
   1689 ****       117.7500 143.2500 115.2500 Du        
   1690 ****       117.7500 143.2500 115.5000 Du        
   1691 ****       117.7500 143.2500 128.2500 Du        
   1692 ****       117.7500 143.2500 128.5000 Du        
   1693 ****       117.7500 143.2500 128.7500 Du        
   1694 ****       117.7500 143.2500 129.0000 Du        
   1695 ****       117.7500 143.2500 129.2500 Du        
   1696 ****       117.7500 143.2500 129.5000 Du        
   1697 ****       117.7500 143.5000 114.5000 Du        
   1698 ****       117.7500 143.5000 114.7500 Du        
   1699 ****       117.7500 143.5000 115.0000 Du        
   1700 ****       117.7500 143.5000 115.2500 Du        
   1701 ****       117.7500 143.5000 128.7500 Du        
   1702 ****       117.7500 143.5000 162.2500 Du        
   1703 ****       117.7500 143.5000 162.5000 Du        
   1704 ****       117.7500 143.5000 162.7500 Du        
   1705 ****       117.7500 143.7500 114.5000 Du        
   1706 ****       117.7500 143.7500 114.7500 Du        
   1707 ****       117.7500 143.7500 115.0000 Du        
   1708 ****       117.7500 143.7500 115.2500 Du        
   1709 ****       117.7500 143.7500 162.5000 Du        
   1710 ****       117.7500 143.7500 162.7500 Du        
   1711 ****       117.7500 143.7500 163.0000 Du        
   1712 ****       117.7500 144.0000 114.7500 Du        
   1713 ****       117.7500 144.0000 115.0000 Du        
   1714 ****       117.7500 144.0000 115.2500 Du        
   1715 ****       117.7500 144.0000 162.5000 Du        
   1716 ****       117.7500 144.0000 162.7500 Du        
   1717 ****       117.7500 144.0000 163.0000 Du        
   1718 ****       117.7500 144.0000 163.2500 Du        
   1719 ****       117.7500 144.2500 162.7500 Du        
   1720 ****       117.7500 144.2500 163.0000 Du        
   1721 ****       117.7500 144.2500 163.2500 Du        
   1722 ****       117.7500 144.2500 163.5000 Du        
   1723 ****       117.7500 144.5000 163.0000 Du        
   1724 ****       117.7500 144.5000 163.2500 Du        
   1725 ****       117.7500 144.5000 163.5000 Du        
   1726 ****       117.7500 144.7500 163.0000 Du        
   1727 ****       117.7500 144.7500 163.2500 Du        
   1728 ****       117.7500 144.7500 163.5000 Du        
   1729 ****       117.7500 144.7500 163.7500 Du        
   1730 ****       117.7500 145.0000 163.2500 Du        
   1731 ****       117.7500 145.0000 163.5000 Du        
   1732 ****       117.7500 145.0000 163.7500 Du        
   1733 ****       117.7500 153.2500 155.0000 Du        
   1734 ****       117.7500 153.2500 155.2500 Du        
   1735 ****       117.7500 153.5000 154.7500 Du        
   1736 ****       117.7500 153.5000 155.0000 Du        
   1737 ****       117.7500 153.5000 155.2500 Du        
   1738 ****       117.7500 153.5000 155.5000 Du        
   1739 ****       117.7500 153.7500 154.7500 Du        
   1740 ****       117.7500 153.7500 155.0000 Du        
   1741 ****       117.7500 153.7500 155.2500 Du        
   1742 ****       117.7500 153.7500 155.5000 Du        
   1743 ****       117.7500 153.7500 155.7500 Du        
   1744 ****       117.7500 154.0000 155.0000 Du        
   1745 ****       117.7500 154.0000 155.2500 Du        
   1746 ****       117.7500 154.0000 155.5000 Du        
   1747 ****       117.7500 154.0000 155.7500 Du        
   1748 ****       117.7500 154.0000 156.0000 Du        
   1749 ****       117.7500 154.2500 155.2500 Du        
   1750 ****       117.7500 154.2500 155.5000 Du        
   1751 ****       117.7500 154.2500 155.7500 Du        
   1752 ****       117.7500 154.2500 156.0000 Du        
   1753 ****       117.7500 162.0000 159.5000 Du        
   1754 ****       117.7500 162.0000 159.7500 Du        
   1755 ****       117.7500 162.0000 160.0000 Du        
   1756 ****       117.7500 162.2500 159.2500 Du        
   1757 ****       117.7500 162.2500 159.5000 Du        
   1758 ****       117.7500 162.2500 159.7500 Du        
   1759 ****       117.7500 162.2500 160.0000 Du        
   1760 ****       118.0000 122.2500 164.5000 Du        
   1761 ****       118.0000 124.5000 126.7500 Du        
   1762 ****       118.0000 124.7500 126.0000 Du        
   1763 ****       118.0000 124.7500 126.2500 Du        
   1764 ****       118.0000 124.7500 126.5000 Du        
   1765 ****       118.0000 124.7500 126.7500 Du        
   1766 ****       118.0000 124.7500 127.0000 Du        
   1767 ****       118.0000 125.0000 125.7500 Du        
   1768 ****       118.0000 125.0000 126.0000 Du        
   1769 ****       118.0000 125.0000 126.2500 Du        
   1770 ****       118.0000 125.0000 126.5000 Du        
   1771 ****       118.0000 125.0000 126.7500 Du        
   1772 ****       118.0000 125.0000 127.0000 Du        
   1773 ****       118.0000 125.2500 125.7500 Du        
   1774 ****       118.0000 125.2500 126.0000 Du        
   1775 ****       118.0000 125.2500 126.2500 Du        
   1776 ****       118.0000 125.2500 126.5000 Du        
   1777 ****       118.0000 125.2500 126.7500 Du        
   1778 ****       118.0000 125.2500 127.0000 Du        
   1779 ****       118.0000 125.5000 125.7500 Du        
   1780 ****       118.0000 125.5000 126.0000 Du        
   1781 ****       118.0000 125.5000 126.2500 Du        
   1782 ****       118.0000 125.5000 126.5000 Du        
   1783 ****       118.0000 125.5000 126.7500 Du        
   1784 ****       118.0000 125.7500 126.0000 Du        
   1785 ****       118.0000 125.7500 126.2500 Du        
   1786 ****       118.0000 126.0000 126.0000 Du        
   1787 ****       118.0000 127.5000 104.7500 Du        
   1788 ****       118.0000 127.5000 105.0000 Du        
   1789 ****       118.0000 127.5000 105.2500 Du        
   1790 ****       118.0000 127.5000 105.5000 Du        
   1791 ****       118.0000 127.7500 104.0000 Du        
   1792 ****       118.0000 127.7500 104.2500 Du        
   1793 ****       118.0000 127.7500 104.5000 Du        
   1794 ****       118.0000 127.7500 104.7500 Du        
   1795 ****       118.0000 127.7500 105.0000 Du        
   1796 ****       118.0000 127.7500 105.2500 Du        
   1797 ****       118.0000 127.7500 105.5000 Du        
   1798 ****       118.0000 128.0000 104.0000 Du        
   1799 ****       118.0000 128.0000 104.2500 Du        
   1800 ****       118.0000 128.0000 104.5000 Du        
   1801 ****       118.0000 128.0000 104.7500 Du        
   1802 ****       118.0000 128.0000 105.0000 Du        
   1803 ****       118.0000 128.0000 105.2500 Du        
   1804 ****       118.0000 128.0000 105.5000 Du        
   1805 ****       118.0000 128.2500 104.0000 Du        
   1806 ****       118.0000 128.2500 104.2500 Du        
   1807 ****       118.0000 128.2500 104.5000 Du        
   1808 ****       118.0000 128.2500 104.7500 Du        
   1809 ****       118.0000 128.2500 105.0000 Du        
   1810 ****       118.0000 128.2500 105.2500 Du        
   1811 ****       118.0000 128.2500 105.5000 Du        
   1812 ****       118.0000 128.5000 104.2500 Du        
   1813 ****       118.0000 128.5000 104.5000 Du        
   1814 ****       118.0000 128.5000 104.7500 Du        
   1815 ****       118.0000 128.5000 105.0000 Du        
   1816 ****       118.0000 128.5000 105.2500 Du        
   1817 ****       118.0000 128.5000 105.5000 Du        
   1818 ****       118.0000 128.7500 104.5000 Du        
   1819 ****       118.0000 128.7500 104.7500 Du        
   1820 ****       118.0000 128.7500 105.0000 Du        
   1821 ****       118.0000 128.7500 105.2500 Du        
   1822 ****       118.0000 129.0000 104.7500 Du        
   1823 ****       118.0000 129.0000 105.0000 Du        
   1824 ****       118.0000 129.0000 105.2500 Du        
   1825 ****       118.0000 129.7500  90.7500 Du        
   1826 ****       118.0000 130.0000  90.0000 Du        
   1827 ****       118.0000 130.0000  90.2500 Du        
   1828 ****       118.0000 130.0000  90.5000 Du        
   1829 ****       118.0000 130.0000  90.7500 Du        
   1830 ****       118.0000 130.0000 125.7500 Du        
   1831 ****       118.0000 130.0000 126.0000 Du        
   1832 ****       118.0000 130.0000 126.2500 Du        
   1833 ****       118.0000 130.2500  90.0000 Du        
   1834 ****       118.0000 130.2500  90.2500 Du        
   1835 ****       118.0000 130.2500  90.5000 Du        
   1836 ****       118.0000 130.2500  90.7500 Du        
   1837 ****       118.0000 130.2500  91.0000 Du        
   1838 ****       118.0000 130.2500 125.2500 Du        
   1839 ****       118.0000 130.2500 125.5000 Du        
   1840 ****       118.0000 130.2500 125.7500 Du        
   1841 ****       118.0000 130.2500 126.0000 Du        
   1842 ****       118.0000 130.2500 126.2500 Du        
   1843 ****       118.0000 130.5000  89.7500 Du        
   1844 ****       118.0000 130.5000  90.0000 Du        
   1845 ****       118.0000 130.5000  90.2500 Du        
   1846 ****       118.0000 130.5000  90.5000 Du        
   1847 ****       118.0000 130.5000  90.7500 Du        
   1848 ****       118.0000 130.5000  91.0000 Du        
   1849 ****       118.0000 130.5000 125.0000 Du        
   1850 ****       118.0000 130.5000 125.2500 Du        
   1851 ****       118.0000 130.5000 125.5000 Du        
   1852 ****       118.0000 130.5000 125.7500 Du        
   1853 ****       118.0000 130.5000 126.0000 Du        
   1854 ****       118.0000 130.5000 126.2500 Du        
   1855 ****       118.0000 130.7500  89.5000 Du        
   1856 ****       118.0000 130.7500  89.7500 Du        
   1857 ****       118.0000 130.7500  90.0000 Du        
   1858 ****       118.0000 130.7500  90.2500 Du        
   1859 ****       118.0000 130.7500  90.5000 Du        
   1860 ****       118.0000 130.7500  90.7500 Du        
   1861 ****       118.0000 130.7500 124.7500 Du        
   1862 ****       118.0000 130.7500 125.0000 Du        
   1863 ****       118.0000 130.7500 125.2500 Du        
   1864 ****       118.0000 130.7500 125.5000 Du        
   1865 ****       118.0000 130.7500 125.7500 Du        
   1866 ****       118.0000 130.7500 126.0000 Du        
   1867 ****       118.0000 130.7500 126.2500 Du        
   1868 ****       118.0000 131.0000  89.5000 Du        
   1869 ****       118.0000 131.0000  89.7500 Du        
   1870 ****       118.0000 131.0000  90.0000 Du        
   1871 ****       118.0000 131.0000  90.2500 Du        
   1872 ****       118.0000 131.0000 124.0000 Du        
   1873 ****       118.0000 131.0000 124.2500 Du        
   1874 ****       118.0000 131.0000 124.5000 Du        
   1875 ****       118.0000 131.0000 124.7500 Du        
   1876 ****       118.0000 131.0000 125.0000 Du        
   1877 ****       118.0000 131.0000 125.2500 Du        
   1878 ****       118.0000 131.0000 125.5000 Du        
   1879 ****       118.0000 131.0000 125.7500 Du        
   1880 ****       118.0000 131.0000 126.0000 Du        
   1881 ****       118.0000 131.2500 123.2500 Du        
   1882 ****       118.0000 131.2500 123.5000 Du        
   1883 ****       118.0000 131.2500 123.7500 Du        
   1884 ****       118.0000 131.2500 124.0000 Du        
   1885 ****       118.0000 131.2500 124.2500 Du        
   1886 ****       118.0000 131.2500 124.5000 Du        
   1887 ****       118.0000 131.2500 124.7500 Du        
   1888 ****       118.0000 131.2500 125.0000 Du        
   1889 ****       118.0000 131.2500 125.2500 Du        
   1890 ****       118.0000 131.2500 125.5000 Du        
   1891 ****       118.0000 131.5000 121.7500 Du        
   1892 ****       118.0000 131.5000 122.0000 Du        
   1893 ****       118.0000 131.5000 122.2500 Du        
   1894 ****       118.0000 131.5000 122.5000 Du        
   1895 ****       118.0000 131.5000 122.7500 Du        
   1896 ****       118.0000 131.5000 123.0000 Du        
   1897 ****       118.0000 131.5000 123.2500 Du        
   1898 ****       118.0000 131.5000 123.5000 Du        
   1899 ****       118.0000 131.5000 123.7500 Du        
   1900 ****       118.0000 131.5000 124.0000 Du        
   1901 ****       118.0000 131.5000 124.2500 Du        
   1902 ****       118.0000 131.5000 124.5000 Du        
   1903 ****       118.0000 131.5000 124.7500 Du        
   1904 ****       118.0000 131.5000 125.0000 Du        
   1905 ****       118.0000 131.5000 125.2500 Du        
   1906 ****       118.0000 131.7500 121.7500 Du        
   1907 ****       118.0000 131.7500 122.0000 Du        
   1908 ****       118.0000 131.7500 122.2500 Du        
   1909 ****       118.0000 131.7500 122.5000 Du        
   1910 ****       118.0000 131.7500 122.7500 Du        
   1911 ****       118.0000 131.7500 123.0000 Du        
   1912 ****       118.0000 131.7500 123.2500 Du        
   1913 ****       118.0000 131.7500 123.5000 Du        
   1914 ****       118.0000 131.7500 123.7500 Du        
   1915 ****       118.0000 131.7500 124.0000 Du        
   1916 ****       118.0000 131.7500 124.2500 Du        
   1917 ****       118.0000 131.7500 124.5000 Du        
   1918 ****       118.0000 131.7500 124.7500 Du        
   1919 ****       118.0000 131.7500 125.0000 Du        
   1920 ****       118.0000 132.0000 121.7500 Du        
   1921 ****       118.0000 132.0000 122.0000 Du        
   1922 ****       118.0000 132.0000 122.2500 Du        
   1923 ****       118.0000 132.0000 122.5000 Du        
   1924 ****       118.0000 132.0000 122.7500 Du        
   1925 ****       118.0000 132.0000 123.0000 Du        
   1926 ****       118.0000 132.0000 123.2500 Du        
   1927 ****       118.0000 132.0000 123.5000 Du        
   1928 ****       118.0000 132.0000 123.7500 Du        
   1929 ****       118.0000 132.0000 124.0000 Du        
   1930 ****       118.0000 132.0000 124.2500 Du        
   1931 ****       118.0000 132.0000 124.5000 Du        
   1932 ****       118.0000 132.0000 124.7500 Du        
   1933 ****       118.0000 132.0000 125.0000 Du        
   1934 ****       118.0000 132.2500 121.7500 Du        
   1935 ****       118.0000 132.2500 122.0000 Du        
   1936 ****       118.0000 132.2500 122.2500 Du        
   1937 ****       118.0000 132.2500 122.5000 Du        
   1938 ****       118.0000 132.2500 122.7500 Du        
   1939 ****       118.0000 132.2500 123.0000 Du        
   1940 ****       118.0000 132.2500 123.2500 Du        
   1941 ****       118.0000 132.2500 123.5000 Du        
   1942 ****       118.0000 132.2500 123.7500 Du        
   1943 ****       118.0000 132.2500 124.0000 Du        
   1944 ****       118.0000 132.2500 124.2500 Du        
   1945 ****       118.0000 132.2500 124.5000 Du        
   1946 ****       118.0000 132.2500 124.7500 Du        
   1947 ****       118.0000 132.5000 122.0000 Du        
   1948 ****       118.0000 132.5000 122.2500 Du        
   1949 ****       118.0000 132.5000 122.5000 Du        
   1950 ****       118.0000 132.5000 122.7500 Du        
   1951 ****       118.0000 132.5000 123.0000 Du        
   1952 ****       118.0000 132.5000 123.2500 Du        
   1953 ****       118.0000 132.5000 123.5000 Du        
   1954 ****       118.0000 132.5000 123.7500 Du        
   1955 ****       118.0000 132.5000 124.0000 Du        
   1956 ****       118.0000 132.5000 124.2500 Du        
   1957 ****       118.0000 132.5000 124.5000 Du        
   1958 ****       118.0000 132.7500 122.0000 Du        
   1959 ****       118.0000 132.7500 122.2500 Du        
   1960 ****       118.0000 132.7500 122.5000 Du        
   1961 ****       118.0000 132.7500 122.7500 Du        
   1962 ****       118.0000 132.7500 123.0000 Du        
   1963 ****       118.0000 132.7500 123.2500 Du        
   1964 ****       118.0000 132.7500 123.5000 Du        
   1965 ****       118.0000 132.7500 123.7500 Du        
   1966 ****       118.0000 132.7500 124.0000 Du        
   1967 ****       118.0000 132.7500 124.2500 Du        
   1968 ****       118.0000 133.0000 122.2500 Du        
   1969 ****       118.0000 133.0000 122.5000 Du        
   1970 ****       118.0000 133.0000 122.7500 Du        
   1971 ****       118.0000 133.0000 123.0000 Du        
   1972 ****       118.0000 133.0000 123.2500 Du        
   1973 ****       118.0000 133.0000 123.5000 Du        
   1974 ****       118.0000 133.0000 123.7500 Du        
   1975 ****       118.0000 133.0000 124.0000 Du        
   1976 ****       118.0000 133.2500 122.5000 Du        
   1977 ****       118.0000 133.2500 122.7500 Du        
   1978 ****       118.0000 134.7500 138.7500 Du        
   1979 ****       118.0000 134.7500 139.0000 Du        
   1980 ****       118.0000 134.7500 139.2500 Du        
   1981 ****       118.0000 134.7500 170.0000 Du        
   1982 ****       118.0000 135.0000 138.7500 Du        
   1983 ****       118.0000 135.0000 139.0000 Du        
   1984 ****       118.0000 135.0000 139.2500 Du        
   1985 ****       118.0000 135.0000 169.7500 Du        
   1986 ****       118.0000 135.0000 170.0000 Du        
   1987 ****       118.0000 135.2500 138.5000 Du        
   1988 ****       118.0000 135.2500 138.7500 Du        
   1989 ****       118.0000 135.2500 139.0000 Du        
   1990 ****       118.0000 135.2500 139.2500 Du        
   1991 ****       118.0000 135.2500 169.5000 Du        
   1992 ****       118.0000 135.2500 169.7500 Du        
   1993 ****       118.0000 135.2500 170.0000 Du        
   1994 ****       118.0000 135.5000 138.7500 Du        
   1995 ****       118.0000 135.5000 139.0000 Du        
   1996 ****       118.0000 135.5000 169.5000 Du        
   1997 ****       118.0000 135.5000 169.7500 Du        
   1998 ****       118.0000 135.5000 170.0000 Du        
   1999 ****       118.0000 135.7500 159.5000 Du        
   2000 ****       118.0000 135.7500 159.7500 Du        
   2001 ****       118.0000 135.7500 169.0000 Du        
   2002 ****       118.0000 135.7500 169.2500 Du        
   2003 ****       118.0000 135.7500 169.5000 Du        
   2004 ****       118.0000 135.7500 169.7500 Du        
   2005 ****       118.0000 135.7500 170.0000 Du        
   2006 ****       118.0000 136.0000 159.5000 Du        
   2007 ****       118.0000 136.0000 168.7500 Du        
   2008 ****       118.0000 136.0000 169.0000 Du        
   2009 ****       118.0000 136.0000 169.2500 Du        
   2010 ****       118.0000 136.0000 169.5000 Du        
   2011 ****       118.0000 136.0000 169.7500 Du        
   2012 ****       118.0000 136.0000 170.0000 Du        
   2013 ****       118.0000 136.2500 169.0000 Du        
   2014 ****       118.0000 136.2500 169.2500 Du        
   2015 ****       118.0000 136.2500 169.5000 Du        
   2016 ****       118.0000 136.2500 169.7500 Du        
   2017 ****       118.0000 136.2500 170.0000 Du        
   2018 ****       118.0000 136.5000 169.0000 Du        
   2019 ****       118.0000 136.5000 169.2500 Du        
   2020 ****       118.0000 136.5000 169.5000 Du        
   2021 ****       118.0000 136.5000 169.7500 Du        
   2022 ****       118.0000 136.5000 170.0000 Du        
   2023 ****       118.0000 136.7500 169.0000 Du        
   2024 ****       118.0000 136.7500 169.2500 Du        
   2025 ****       118.0000 136.7500 169.7500 Du        
   2026 ****       118.0000 136.7500 170.0000 Du        
   2027 ****       118.0000 137.0000 169.2500 Du        
   2028 ****       118.0000 137.0000 169.5000 Du        
   2029 ****       118.0000 137.0000 169.7500 Du        
   2030 ****       118.0000 137.0000 170.0000 Du        
   2031 ****       118.0000 137.2500 169.2500 Du        
   2032 ****       118.0000 137.2500 169.5000 Du        
   2033 ****       118.0000 137.2500 169.7500 Du        
   2034 ****       118.0000 137.2500 170.0000 Du        
   2035 ****       118.0000 137.5000 169.0000 Du        
   2036 ****       118.0000 137.5000 169.2500 Du        
   2037 ****       118.0000 137.5000 169.5000 Du        
   2038 ****       118.0000 137.5000 169.7500 Du        
   2039 ****       118.0000 137.5000 170.0000 Du        
   2040 ****       118.0000 137.7500 169.0000 Du        
   2041 ****       118.0000 137.7500 169.2500 Du        
   2042 ****       118.0000 137.7500 169.5000 Du        
   2043 ****       118.0000 137.7500 169.7500 Du        
   2044 ****       118.0000 137.7500 170.0000 Du        
   2045 ****       118.0000 138.0000 169.0000 Du        
   2046 ****       118.0000 138.0000 169.2500 Du        
   2047 ****       118.0000 138.0000 169.5000 Du        
   2048 ****       118.0000 138.0000 169.7500 Du        
   2049 ****       118.0000 138.0000 170.0000 Du        
   2050 ****       118.0000 138.2500 169.0000 Du        
   2051 ****       118.0000 138.2500 169.2500 Du        
   2052 ****       118.0000 138.2500 169.5000 Du        
   2053 ****       118.0000 138.5000 169.2500 Du        
   2054 ****       118.0000 138.5000 169.5000 Du        
   2055 ****       118.0000 140.0000 158.5000 Du        
   2056 ****       118.0000 140.2500 108.7500 Du        
   2057 ****       118.0000 140.2500 158.7500 Du        
   2058 ****       118.0000 140.2500 159.0000 Du        
   2059 ****       118.0000 140.5000 158.5000 Du        
   2060 ****       118.0000 140.5000 158.7500 Du        
   2061 ****       118.0000 140.5000 159.0000 Du        
   2062 ****       118.0000 140.7500 158.5000 Du        
   2063 ****       118.0000 140.7500 158.7500 Du        
   2064 ****       118.0000 140.7500 159.0000 Du        
   2065 ****       118.0000 140.7500 159.2500 Du        
   2066 ****       118.0000 140.7500 159.5000 Du        
   2067 ****       118.0000 141.0000 158.5000 Du        
   2068 ****       118.0000 141.0000 158.7500 Du        
   2069 ****       118.0000 141.0000 159.0000 Du        
   2070 ****       118.0000 141.0000 159.2500 Du        
   2071 ****       118.0000 141.0000 159.5000 Du        
   2072 ****       118.0000 141.0000 159.7500 Du        
   2073 ****       118.0000 141.2500 158.7500 Du        
   2074 ****       118.0000 141.2500 159.0000 Du        
   2075 ****       118.0000 141.2500 159.2500 Du        
   2076 ****       118.0000 141.2500 159.5000 Du        
   2077 ****       118.0000 141.2500 159.7500 Du        
   2078 ****       118.0000 141.5000 159.2500 Du        
   2079 ****       118.0000 141.5000 159.5000 Du        
   2080 ****       118.0000 141.5000 159.7500 Du        
   2081 ****       118.0000 141.7500 159.7500 Du        
   2082 ****       118.0000 141.7500 160.0000 Du        
   2083 ****       118.0000 142.0000 128.7500 Du        
   2084 ****       118.0000 142.2500 128.5000 Du        
   2085 ****       118.0000 142.2500 128.7500 Du        
   2086 ****       118.0000 142.2500 129.0000 Du        
   2087 ****       118.0000 142.5000 128.5000 Du        
   2088 ****       118.0000 142.5000 128.7500 Du        
   2089 ****       118.0000 142.5000 129.0000 Du        
   2090 ****       118.0000 142.7500 114.5000 Du        
   2091 ****       118.0000 142.7500 114.7500 Du        
   2092 ****       118.0000 142.7500 115.0000 Du        
   2093 ****       118.0000 142.7500 128.2500 Du        
   2094 ****       118.0000 142.7500 128.5000 Du        
   2095 ****       118.0000 142.7500 128.7500 Du        
   2096 ****       118.0000 142.7500 129.0000 Du        
   2097 ****       118.0000 143.0000 114.2500 Du        
   2098 ****       118.0000 143.0000 114.5000 Du        
   2099 ****       118.0000 143.0000 114.7500 Du        
   2100 ****       118.0000 143.0000 115.0000 Du        
   2101 ****       118.0000 143.0000 115.2500 Du        
   2102 ****       118.0000 143.0000 128.2500 Du        
   2103 ****       118.0000 143.0000 128.5000 Du        
   2104 ****       118.0000 143.0000 128.7500 Du        
   2105 ****       118.0000 143.0000 129.0000 Du        
   2106 ****       118.0000 143.0000 129.2500 Du        
   2107 ****       118.0000 143.2500 114.2500 Du        
   2108 ****       118.0000 143.2500 114.5000 Du        
   2109 ****       118.0000 143.2500 114.7500 Du        
   2110 ****       118.0000 143.2500 115.0000 Du        
   2111 ****       118.0000 143.2500 115.2500 Du        
   2112 ****       118.0000 143.2500 128.2500 Du        
   2113 ****       118.0000 143.2500 128.5000 Du        
   2114 ****       118.0000 143.2500 128.7500 Du        
   2115 ****       118.0000 143.2500 129.0000 Du        
   2116 ****       118.0000 143.2500 129.2500 Du        
   2117 ****       118.0000 143.2500 162.0000 Du        
   2118 ****       118.0000 143.2500 162.2500 Du        
   2119 ****       118.0000 143.5000 114.5000 Du        
   2120 ****       118.0000 143.5000 114.7500 Du        
   2121 ****       118.0000 143.5000 115.0000 Du        
   2122 ****       118.0000 143.5000 115.2500 Du        
   2123 ****       118.0000 143.5000 128.5000 Du        
   2124 ****       118.0000 143.5000 128.7500 Du        
   2125 ****       118.0000 143.5000 162.0000 Du        
   2126 ****       118.0000 143.5000 162.2500 Du        
   2127 ****       118.0000 143.5000 162.5000 Du        
   2128 ****       118.0000 143.5000 162.7500 Du        
   2129 ****       118.0000 143.7500 114.5000 Du        
   2130 ****       118.0000 143.7500 114.7500 Du        
   2131 ****       118.0000 143.7500 115.0000 Du        
   2132 ****       118.0000 143.7500 115.2500 Du        
   2133 ****       118.0000 143.7500 162.2500 Du        
   2134 ****       118.0000 143.7500 162.5000 Du        
   2135 ****       118.0000 143.7500 162.7500 Du        
   2136 ****       118.0000 143.7500 163.0000 Du        
   2137 ****       118.0000 143.7500 163.2500 Du        
   2138 ****       118.0000 144.0000 114.7500 Du        
   2139 ****       118.0000 144.0000 115.0000 Du        
   2140 ****       118.0000 144.0000 115.2500 Du        
   2141 ****       118.0000 144.0000 162.5000 Du        
   2142 ****       118.0000 144.0000 162.7500 Du        
   2143 ****       118.0000 144.0000 163.0000 Du        
   2144 ****       118.0000 144.0000 163.2500 Du        
   2145 ****       118.0000 144.0000 163.5000 Du        
   2146 ****       118.0000 144.2500 114.7500 Du        
   2147 ****       118.0000 144.2500 115.0000 Du        
   2148 ****       118.0000 144.2500 115.2500 Du        
   2149 ****       118.0000 144.2500 162.5000 Du        
   2150 ****       118.0000 144.2500 162.7500 Du        
   2151 ****       118.0000 144.2500 163.0000 Du        
   2152 ****       118.0000 144.2500 163.2500 Du        
   2153 ****       118.0000 144.2500 163.5000 Du        
   2154 ****       118.0000 144.2500 163.7500 Du        
   2155 ****       118.0000 144.5000 162.7500 Du        
   2156 ****       118.0000 144.5000 163.0000 Du        
   2157 ****       118.0000 144.5000 163.2500 Du        
   2158 ****       118.0000 144.5000 163.5000 Du        
   2159 ****       118.0000 144.5000 163.7500 Du        
   2160 ****       118.0000 144.7500 163.0000 Du        
   2161 ****       118.0000 144.7500 163.2500 Du        
   2162 ****       118.0000 144.7500 163.5000 Du        
   2163 ****       118.0000 144.7500 163.7500 Du        
   2164 ****       118.0000 145.0000 163.5000 Du        
   2165 ****       118.0000 152.2500  91.7500 Du        
   2166 ****       118.0000 152.5000  91.7500 Du        
   2167 ****       118.0000 152.7500  91.7500 Du        
   2168 ****       118.0000 153.0000  91.7500 Du        
   2169 ****       118.0000 153.2500 154.7500 Du        
   2170 ****       118.0000 153.2500 155.0000 Du        
   2171 ****       118.0000 153.2500 155.2500 Du        
   2172 ****       118.0000 153.5000 154.7500 Du        
   2173 ****       118.0000 153.5000 155.0000 Du        
   2174 ****       118.0000 153.5000 155.2500 Du        
   2175 ****       118.0000 153.5000 155.5000 Du        
   2176 ****       118.0000 153.7500 154.7500 Du        
   2177 ****       118.0000 153.7500 155.0000 Du        
   2178 ****       118.0000 153.7500 155.2500 Du        
   2179 ****       118.0000 153.7500 155.5000 Du        
   2180 ****       118.0000 153.7500 155.7500 Du        
   2181 ****       118.0000 154.0000 155.0000 Du        
   2182 ****       118.0000 154.0000 155.2500 Du        
   2183 ****       118.0000 154.0000 155.5000 Du        
   2184 ****       118.0000 154.0000 155.7500 Du        
   2185 ****       118.0000 154.0000 156.0000 Du        
   2186 ****       118.0000 154.2500 155.5000 Du        
   2187 ****       118.0000 154.2500 155.7500 Du        
   2188 ****       118.0000 154.2500 156.0000 Du        
   2189 ****       118.0000 162.2500 159.7500 Du        
   2190 ****       118.0000 162.2500 160.0000 Du        
   2191 ****       118.2500 122.5000 164.5000 Du        
   2192 ****       118.2500 125.0000 126.0000 Du        
   2193 ****       118.2500 125.0000 126.2500 Du        
   2194 ****       118.2500 125.0000 126.5000 Du        
   2195 ****       118.2500 125.0000 126.7500 Du        
   2196 ****       118.2500 125.2500 126.0000 Du        
   2197 ****       118.2500 125.2500 126.2500 Du        
   2198 ****       118.2500 125.2500 126.5000 Du        
   2199 ****       118.2500 125.2500 126.7500 Du        
   2200 ****       118.2500 125.5000 126.0000 Du        
   2201 ****       118.2500 125.5000 126.2500 Du        
   2202 ****       118.2500 125.5000 126.5000 Du        
   2203 ****       118.2500 125.7500 126.0000 Du        
   2204 ****       118.2500 125.7500 126.2500 Du        
   2205 ****       118.2500 127.5000 104.5000 Du        
   2206 ****       118.2500 127.5000 104.7500 Du        
   2207 ****       118.2500 127.5000 105.0000 Du        
   2208 ****       118.2500 127.5000 105.2500 Du        
   2209 ****       118.2500 127.5000 105.5000 Du        
   2210 ****       118.2500 127.7500 103.7500 Du        
   2211 ****       118.2500 127.7500 104.0000 Du        
   2212 ****       118.2500 127.7500 104.2500 Du        
   2213 ****       118.2500 127.7500 104.5000 Du        
   2214 ****       118.2500 127.7500 104.7500 Du        
   2215 ****       118.2500 127.7500 105.0000 Du        
   2216 ****       118.2500 127.7500 105.2500 Du        
   2217 ****       118.2500 127.7500 105.5000 Du        
   2218 ****       118.2500 128.0000 103.7500 Du        
   2219 ****       118.2500 128.0000 104.0000 Du        
   2220 ****       118.2500 128.0000 104.2500 Du        
   2221 ****       118.2500 128.0000 104.5000 Du        
   2222 ****       118.2500 128.0000 104.7500 Du        
   2223 ****       118.2500 128.0000 105.0000 Du        
   2224 ****       118.2500 128.0000 105.2500 Du        
   2225 ****       118.2500 128.0000 105.5000 Du        
   2226 ****       118.2500 128.2500 104.0000 Du        
   2227 ****       118.2500 128.2500 104.2500 Du        
   2228 ****       118.2500 128.2500 104.5000 Du        
   2229 ****       118.2500 128.2500 104.7500 Du        
   2230 ****       118.2500 128.2500 105.0000 Du        
   2231 ****       118.2500 128.2500 105.2500 Du        
   2232 ****       118.2500 128.5000 104.2500 Du        
   2233 ****       118.2500 128.5000 104.5000 Du        
   2234 ****       118.2500 128.5000 104.7500 Du        
   2235 ****       118.2500 128.5000 105.0000 Du        
   2236 ****       118.2500 128.5000 105.2500 Du        
   2237 ****       118.2500 128.7500 104.5000 Du        
   2238 ****       118.2500 128.7500 104.7500 Du        
   2239 ****       118.2500 128.7500 105.0000 Du        
   2240 ****       118.2500 128.7500 105.2500 Du        
   2241 ****       118.2500 130.0000 125.7500 Du        
   2242 ****       118.2500 130.0000 126.0000 Du        
   2243 ****       118.2500 130.2500 125.5000 Du        
   2244 ****       118.2500 130.2500 125.7500 Du        
   2245 ****       118.2500 130.2500 126.0000 Du        
   2246 ****       118.2500 130.2500 126.2500 Du        
   2247 ****       118.2500 130.5000  89.7500 Du        
   2248 ****       118.2500 130.5000  90.0000 Du        
   2249 ****       118.2500 130.5000 125.0000 Du        
   2250 ****       118.2500 130.5000 125.2500 Du        
   2251 ****       118.2500 130.5000 125.5000 Du        
   2252 ****       118.2500 130.5000 125.7500 Du        
   2253 ****       118.2500 130.5000 126.0000 Du        
   2254 ****       118.2500 130.5000 126.2500 Du        
   2255 ****       118.2500 130.7500  89.7500 Du        
   2256 ****       118.2500 130.7500 124.7500 Du        
   2257 ****       118.2500 130.7500 125.0000 Du        
   2258 ****       118.2500 130.7500 125.2500 Du        
   2259 ****       118.2500 130.7500 125.5000 Du        
   2260 ****       118.2500 130.7500 125.7500 Du        
   2261 ****       118.2500 130.7500 126.0000 Du        
   2262 ****       118.2500 130.7500 126.2500 Du        
   2263 ****       118.2500 131.0000 124.2500 Du        
   2264 ****       118.2500 131.0000 124.5000 Du        
   2265 ****       118.2500 131.0000 124.7500 Du        
   2266 ****       118.2500 131.0000 125.0000 Du        
   2267 ****       118.2500 131.0000 125.2500 Du        
   2268 ****       118.2500 131.0000 125.5000 Du        
   2269 ****       118.2500 131.0000 125.7500 Du        
   2270 ****       118.2500 131.2500 121.0000 Du        
   2271 ****       118.2500 131.2500 121.2500 Du        
   2272 ****       118.2500 131.2500 123.5000 Du        
   2273 ****       118.2500 131.2500 123.7500 Du        
   2274 ****       118.2500 131.2500 124.0000 Du        
   2275 ****       118.2500 131.2500 124.2500 Du        
   2276 ****       118.2500 131.2500 124.5000 Du        
   2277 ****       118.2500 131.2500 124.7500 Du        
   2278 ****       118.2500 131.2500 125.0000 Du        
   2279 ****       118.2500 131.2500 125.2500 Du        
   2280 ****       118.2500 131.2500 125.5000 Du        
   2281 ****       118.2500 131.5000 121.0000 Du        
   2282 ****       118.2500 131.5000 121.2500 Du        
   2283 ****       118.2500 131.5000 121.5000 Du        
   2284 ****       118.2500 131.5000 121.7500 Du        
   2285 ****       118.2500 131.5000 122.0000 Du        
   2286 ****       118.2500 131.5000 122.2500 Du        
   2287 ****       118.2500 131.5000 122.5000 Du        
   2288 ****       118.2500 131.5000 122.7500 Du        
   2289 ****       118.2500 131.5000 123.0000 Du        
   2290 ****       118.2500 131.5000 123.2500 Du        
   2291 ****       118.2500 131.5000 123.5000 Du        
   2292 ****       118.2500 131.5000 123.7500 Du        
   2293 ****       118.2500 131.5000 124.0000 Du        
   2294 ****       118.2500 131.5000 124.2500 Du        
   2295 ****       118.2500 131.5000 124.5000 Du        
   2296 ****       118.2500 131.5000 124.7500 Du        
   2297 ****       118.2500 131.5000 125.0000 Du        
   2298 ****       118.2500 131.5000 125.2500 Du        
   2299 ****       118.2500 131.7500 121.2500 Du        
   2300 ****       118.2500 131.7500 121.5000 Du        
   2301 ****       118.2500 131.7500 121.7500 Du        
   2302 ****       118.2500 131.7500 122.0000 Du        
   2303 ****       118.2500 131.7500 122.2500 Du        
   2304 ****       118.2500 131.7500 122.5000 Du        
   2305 ****       118.2500 131.7500 122.7500 Du        
   2306 ****       118.2500 131.7500 123.0000 Du        
   2307 ****       118.2500 131.7500 123.2500 Du        
   2308 ****       118.2500 131.7500 123.5000 Du        
   2309 ****       118.2500 131.7500 123.7500 Du        
   2310 ****       118.2500 131.7500 124.0000 Du        
   2311 ****       118.2500 131.7500 124.2500 Du        
   2312 ****       118.2500 131.7500 124.5000 Du        
   2313 ****       118.2500 131.7500 124.7500 Du        
   2314 ****       118.2500 131.7500 125.0000 Du        
   2315 ****       118.2500 132.0000 121.2500 Du        
   2316 ****       118.2500 132.0000 121.5000 Du        
   2317 ****       118.2500 132.0000 121.7500 Du        
   2318 ****       118.2500 132.0000 122.0000 Du        
   2319 ****       118.2500 132.0000 122.2500 Du        
   2320 ****       118.2500 132.0000 122.5000 Du        
   2321 ****       118.2500 132.0000 122.7500 Du        
   2322 ****       118.2500 132.0000 123.0000 Du        
   2323 ****       118.2500 132.0000 123.2500 Du        
   2324 ****       118.2500 132.0000 123.5000 Du        
   2325 ****       118.2500 132.0000 123.7500 Du        
   2326 ****       118.2500 132.0000 124.0000 Du        
   2327 ****       118.2500 132.0000 124.2500 Du        
   2328 ****       118.2500 132.0000 124.5000 Du        
   2329 ****       118.2500 132.0000 124.7500 Du        
   2330 ****       118.2500 132.2500 121.5000 Du        
   2331 ****       118.2500 132.2500 121.7500 Du        
   2332 ****       118.2500 132.2500 122.0000 Du        
   2333 ****       118.2500 132.2500 122.2500 Du        
   2334 ****       118.2500 132.2500 122.5000 Du        
   2335 ****       118.2500 132.2500 122.7500 Du        
   2336 ****       118.2500 132.2500 123.0000 Du        
   2337 ****       118.2500 132.2500 123.2500 Du        
   2338 ****       118.2500 132.2500 123.5000 Du        
   2339 ****       118.2500 132.2500 123.7500 Du        
   2340 ****       118.2500 132.2500 124.0000 Du        
   2341 ****       118.2500 132.2500 124.2500 Du        
   2342 ****       118.2500 132.2500 124.5000 Du        
   2343 ****       118.2500 132.5000 121.7500 Du        
   2344 ****       118.2500 132.5000 122.0000 Du        
   2345 ****       118.2500 132.5000 122.2500 Du        
   2346 ****       118.2500 132.5000 122.5000 Du        
   2347 ****       118.2500 132.5000 122.7500 Du        
   2348 ****       118.2500 132.5000 123.0000 Du        
   2349 ****       118.2500 132.5000 123.2500 Du        
   2350 ****       118.2500 132.5000 123.5000 Du        
   2351 ****       118.2500 132.5000 123.7500 Du        
   2352 ****       118.2500 132.5000 124.0000 Du        
   2353 ****       118.2500 132.5000 124.2500 Du        
   2354 ****       118.2500 132.7500 121.7500 Du        
   2355 ****       118.2500 132.7500 122.0000 Du        
   2356 ****       118.2500 132.7500 122.2500 Du        
   2357 ****       118.2500 132.7500 122.5000 Du        
   2358 ****       118.2500 132.7500 122.7500 Du        
   2359 ****       118.2500 132.7500 123.0000 Du        
   2360 ****       118.2500 132.7500 123.2500 Du        
   2361 ****       118.2500 132.7500 123.5000 Du        
   2362 ****       118.2500 132.7500 123.7500 Du        
   2363 ****       118.2500 132.7500 124.0000 Du        
   2364 ****       118.2500 132.7500 124.2500 Du        
   2365 ****       118.2500 133.0000 122.0000 Du        
   2366 ****       118.2500 133.0000 122.2500 Du        
   2367 ****       118.2500 133.0000 122.5000 Du        
   2368 ****       118.2500 133.0000 122.7500 Du        
   2369 ****       118.2500 133.0000 123.0000 Du        
   2370 ****       118.2500 133.0000 123.2500 Du        
   2371 ****       118.2500 134.5000 170.0000 Du        
   2372 ****       118.2500 134.7500 138.7500 Du        
   2373 ****       118.2500 134.7500 139.0000 Du        
   2374 ****       118.2500 134.7500 139.2500 Du        
   2375 ****       118.2500 134.7500 170.0000 Du        
   2376 ****       118.2500 135.0000 138.5000 Du        
   2377 ****       118.2500 135.0000 138.7500 Du        
   2378 ****       118.2500 135.0000 139.0000 Du        
   2379 ****       118.2500 135.0000 139.2500 Du        
   2380 ****       118.2500 135.0000 169.7500 Du        
   2381 ****       118.2500 135.0000 170.0000 Du        
   2382 ****       118.2500 135.2500 138.5000 Du        
   2383 ****       118.2500 135.2500 138.7500 Du        
   2384 ****       118.2500 135.2500 139.0000 Du        
   2385 ****       118.2500 135.2500 139.2500 Du        
   2386 ****       118.2500 135.2500 169.5000 Du        
   2387 ****       118.2500 135.2500 169.7500 Du        
   2388 ****       118.2500 135.2500 170.0000 Du        
   2389 ****       118.2500 135.5000 169.5000 Du        
   2390 ****       118.2500 135.5000 169.7500 Du        
   2391 ****       118.2500 135.5000 170.0000 Du        
   2392 ****       118.2500 135.7500 169.0000 Du        
   2393 ****       118.2500 135.7500 169.2500 Du        
   2394 ****       118.2500 135.7500 169.5000 Du        
   2395 ****       118.2500 135.7500 169.7500 Du        
   2396 ****       118.2500 135.7500 170.0000 Du        
   2397 ****       118.2500 136.0000 169.2500 Du        
   2398 ****       118.2500 136.0000 169.5000 Du        
   2399 ****       118.2500 136.0000 169.7500 Du        
   2400 ****       118.2500 136.0000 170.0000 Du        
   2401 ****       118.2500 138.0000 170.0000 Du        
   2402 ****       118.2500 139.7500 158.5000 Du        
   2403 ****       118.2500 140.0000 158.5000 Du        
   2404 ****       118.2500 140.0000 158.7500 Du        
   2405 ****       118.2500 140.2500 158.5000 Du        
   2406 ****       118.2500 140.2500 158.7500 Du        
   2407 ****       118.2500 140.2500 159.0000 Du        
   2408 ****       118.2500 140.5000 158.5000 Du        
   2409 ****       118.2500 140.5000 158.7500 Du        
   2410 ****       118.2500 140.5000 159.0000 Du        
   2411 ****       118.2500 140.7500 158.5000 Du        
   2412 ****       118.2500 140.7500 158.7500 Du        
   2413 ****       118.2500 140.7500 159.0000 Du        
   2414 ****       118.2500 140.7500 159.2500 Du        
   2415 ****       118.2500 140.7500 159.5000 Du        
   2416 ****       118.2500 141.0000 158.7500 Du        
   2417 ****       118.2500 141.0000 159.0000 Du        
   2418 ****       118.2500 141.0000 159.2500 Du        
   2419 ****       118.2500 141.0000 159.5000 Du        
   2420 ****       118.2500 141.2500 158.7500 Du        
   2421 ****       118.2500 141.2500 159.0000 Du        
   2422 ****       118.2500 141.2500 159.2500 Du        
   2423 ****       118.2500 141.2500 159.5000 Du        
   2424 ****       118.2500 141.2500 159.7500 Du        
   2425 ****       118.2500 141.5000 159.2500 Du        
   2426 ****       118.2500 141.5000 159.5000 Du        
   2427 ****       118.2500 141.5000 159.7500 Du        
   2428 ****       118.2500 141.7500 159.7500 Du        
   2429 ****       118.2500 142.7500 114.7500 Du        
   2430 ****       118.2500 142.7500 128.5000 Du        
   2431 ****       118.2500 142.7500 128.7500 Du        
   2432 ****       118.2500 143.0000 114.5000 Du        
   2433 ****       118.2500 143.0000 114.7500 Du        
   2434 ****       118.2500 143.0000 115.0000 Du        
   2435 ****       118.2500 143.0000 128.2500 Du        
   2436 ****       118.2500 143.0000 128.5000 Du        
   2437 ****       118.2500 143.0000 128.7500 Du        
   2438 ****       118.2500 143.2500 114.5000 Du        
   2439 ****       118.2500 143.2500 114.7500 Du        
   2440 ****       118.2500 143.2500 115.0000 Du        
   2441 ****       118.2500 143.2500 115.2500 Du        
   2442 ****       118.2500 143.2500 128.2500 Du        
   2443 ****       118.2500 143.2500 128.5000 Du        
   2444 ****       118.2500 143.2500 128.7500 Du        
   2445 ****       118.2500 143.2500 161.7500 Du        
   2446 ****       118.2500 143.2500 162.0000 Du        
   2447 ****       118.2500 143.2500 162.2500 Du        
   2448 ****       118.2500 143.5000 114.7500 Du        
   2449 ****       118.2500 143.5000 115.0000 Du        
   2450 ****       118.2500 143.5000 162.0000 Du        
   2451 ****       118.2500 143.5000 162.2500 Du        
   2452 ****       118.2500 143.5000 162.5000 Du        
   2453 ****       118.2500 143.5000 162.7500 Du        
   2454 ****       118.2500 143.7500 114.7500 Du        
   2455 ****       118.2500 143.7500 115.0000 Du        
   2456 ****       118.2500 143.7500 115.2500 Du        
   2457 ****       118.2500 143.7500 162.0000 Du        
   2458 ****       118.2500 143.7500 162.2500 Du        
   2459 ****       118.2500 143.7500 162.5000 Du        
   2460 ****       118.2500 143.7500 162.7500 Du        
   2461 ****       118.2500 143.7500 163.0000 Du        
   2462 ****       118.2500 143.7500 163.2500 Du        
   2463 ****       118.2500 144.0000 114.7500 Du        
   2464 ****       118.2500 144.0000 115.0000 Du        
   2465 ****       118.2500 144.0000 115.2500 Du        
   2466 ****       118.2500 144.0000 162.2500 Du        
   2467 ****       118.2500 144.0000 162.5000 Du        
   2468 ****       118.2500 144.0000 162.7500 Du        
   2469 ****       118.2500 144.0000 163.0000 Du        
   2470 ****       118.2500 144.0000 163.2500 Du        
   2471 ****       118.2500 144.0000 163.5000 Du        
   2472 ****       118.2500 144.0000 163.7500 Du        
   2473 ****       118.2500 144.2500 115.0000 Du        
   2474 ****       118.2500 144.2500 162.5000 Du        
   2475 ****       118.2500 144.2500 162.7500 Du        
   2476 ****       118.2500 144.2500 163.0000 Du        
   2477 ****       118.2500 144.2500 163.2500 Du        
   2478 ****       118.2500 144.2500 163.5000 Du        
   2479 ****       118.2500 144.2500 163.7500 Du        
   2480 ****       118.2500 144.5000 163.0000 Du        
   2481 ****       118.2500 144.5000 163.2500 Du        
   2482 ****       118.2500 144.5000 163.5000 Du        
   2483 ****       118.2500 144.5000 163.7500 Du        
   2484 ****       118.2500 144.7500 163.2500 Du        
   2485 ****       118.2500 144.7500 163.5000 Du        
   2486 ****       118.2500 144.7500 163.7500 Du        
   2487 ****       118.2500 152.2500  91.7500 Du        
   2488 ****       118.2500 152.5000  91.7500 Du        
   2489 ****       118.2500 152.7500  91.5000 Du        
   2490 ****       118.2500 152.7500  91.7500 Du        
   2491 ****       118.2500 153.0000  91.5000 Du        
   2492 ****       118.2500 153.0000  91.7500 Du        
   2493 ****       118.2500 153.0000  92.0000 Du        
   2494 ****       118.2500 153.2500  91.7500 Du        
   2495 ****       118.2500 153.2500 154.7500 Du        
   2496 ****       118.2500 153.2500 155.0000 Du        
   2497 ****       118.2500 153.5000 154.7500 Du        
   2498 ****       118.2500 153.5000 155.0000 Du        
   2499 ****       118.2500 153.5000 155.2500 Du        
   2500 ****       118.2500 153.5000 155.5000 Du        
   2501 ****       118.2500 153.7500 154.7500 Du        
   2502 ****       118.2500 153.7500 155.0000 Du        
   2503 ****       118.2500 153.7500 155.2500 Du        
   2504 ****       118.2500 153.7500 155.5000 Du        
   2505 ****       118.2500 153.7500 155.7500 Du        
   2506 ****       118.2500 154.0000 155.2500 Du        
   2507 ****       118.2500 154.0000 155.5000 Du        
   2508 ****       118.2500 154.0000 155.7500 Du        
   2509 ****       118.2500 154.2500 155.5000 Du        
   2510 ****       118.2500 154.2500 155.7500 Du        
   2511 ****       118.5000 121.0000 131.2500 Du        
   2512 ****       118.5000 121.0000 131.5000 Du        
   2513 ****       118.5000 121.2500 130.7500 Du        
   2514 ****       118.5000 121.2500 131.0000 Du        
   2515 ****       118.5000 121.2500 131.2500 Du        
   2516 ****       118.5000 121.2500 131.5000 Du        
   2517 ****       118.5000 121.5000 130.7500 Du        
   2518 ****       118.5000 121.5000 131.0000 Du        
   2519 ****       118.5000 121.5000 131.2500 Du        
   2520 ****       118.5000 121.5000 131.5000 Du        
   2521 ****       118.5000 121.5000 131.7500 Du        
   2522 ****       118.5000 121.7500 131.0000 Du        
   2523 ****       118.5000 122.2500 164.5000 Du        
   2524 ****       118.5000 125.2500 126.2500 Du        
   2525 ****       118.5000 125.2500 126.5000 Du        
   2526 ****       118.5000 125.5000 126.2500 Du        
   2527 ****       118.5000 127.2500 104.7500 Du        
   2528 ****       118.5000 127.2500 105.0000 Du        
   2529 ****       118.5000 127.2500 105.2500 Du        
   2530 ****       118.5000 127.5000 104.2500 Du        
   2531 ****       118.5000 127.5000 104.5000 Du        
   2532 ****       118.5000 127.5000 104.7500 Du        
   2533 ****       118.5000 127.5000 105.0000 Du        
   2534 ****       118.5000 127.5000 105.2500 Du        
   2535 ****       118.5000 127.7500 103.7500 Du        
   2536 ****       118.5000 127.7500 104.0000 Du        
   2537 ****       118.5000 127.7500 104.2500 Du        
   2538 ****       118.5000 127.7500 104.5000 Du        
   2539 ****       118.5000 127.7500 104.7500 Du        
   2540 ****       118.5000 127.7500 105.0000 Du        
   2541 ****       118.5000 127.7500 105.2500 Du        
   2542 ****       118.5000 128.0000 103.7500 Du        
   2543 ****       118.5000 128.0000 104.0000 Du        
   2544 ****       118.5000 128.0000 104.2500 Du        
   2545 ****       118.5000 128.0000 104.5000 Du        
   2546 ****       118.5000 128.0000 104.7500 Du        
   2547 ****       118.5000 128.0000 105.0000 Du        
   2548 ****       118.5000 128.0000 105.2500 Du        
   2549 ****       118.5000 128.2500 104.0000 Du        
   2550 ****       118.5000 128.2500 104.2500 Du        
   2551 ****       118.5000 128.2500 104.5000 Du        
   2552 ****       118.5000 128.2500 104.7500 Du        
   2553 ****       118.5000 128.2500 105.0000 Du        
   2554 ****       118.5000 128.2500 105.2500 Du        
   2555 ****       118.5000 128.5000 104.2500 Du        
   2556 ****       118.5000 128.5000 104.5000 Du        
   2557 ****       118.5000 128.5000 104.7500 Du        
   2558 ****       118.5000 128.5000 105.0000 Du        
   2559 ****       118.5000 128.5000 105.2500 Du        
   2560 ****       118.5000 128.7500 104.5000 Du        
   2561 ****       118.5000 128.7500 104.7500 Du        
   2562 ****       118.5000 128.7500 105.0000 Du        
   2563 ****       118.5000 130.2500 125.5000 Du        
   2564 ****       118.5000 130.2500 125.7500 Du        
   2565 ****       118.5000 130.2500 126.0000 Du        
   2566 ****       118.5000 130.5000 125.0000 Du        
   2567 ****       118.5000 130.5000 125.2500 Du        
   2568 ****       118.5000 130.5000 125.5000 Du        
   2569 ****       118.5000 130.5000 125.7500 Du        
   2570 ****       118.5000 130.5000 126.0000 Du        
   2571 ****       118.5000 130.5000 126.2500 Du        
   2572 ****       118.5000 130.7500 124.7500 Du        
   2573 ****       118.5000 130.7500 125.0000 Du        
   2574 ****       118.5000 130.7500 125.2500 Du        
   2575 ****       118.5000 130.7500 125.5000 Du        
   2576 ****       118.5000 130.7500 125.7500 Du        
   2577 ****       118.5000 130.7500 126.0000 Du        
   2578 ****       118.5000 131.0000 120.7500 Du        
   2579 ****       118.5000 131.0000 124.2500 Du        
   2580 ****       118.5000 131.0000 124.5000 Du        
   2581 ****       118.5000 131.0000 124.7500 Du        
   2582 ****       118.5000 131.0000 125.0000 Du        
   2583 ****       118.5000 131.0000 125.2500 Du        
   2584 ****       118.5000 131.0000 125.5000 Du        
   2585 ****       118.5000 131.0000 125.7500 Du        
   2586 ****       118.5000 131.2500 120.5000 Du        
   2587 ****       118.5000 131.2500 120.7500 Du        
   2588 ****       118.5000 131.2500 121.0000 Du        
   2589 ****       118.5000 131.2500 121.2500 Du        
   2590 ****       118.5000 131.2500 121.5000 Du        
   2591 ****       118.5000 131.2500 123.7500 Du        
   2592 ****       118.5000 131.2500 124.0000 Du        
   2593 ****       118.5000 131.2500 124.2500 Du        
   2594 ****       118.5000 131.2500 124.5000 Du        
   2595 ****       118.5000 131.2500 124.7500 Du        
   2596 ****       118.5000 131.2500 125.0000 Du        
   2597 ****       118.5000 131.2500 125.2500 Du        
   2598 ****       118.5000 131.2500 125.5000 Du        
   2599 ****       118.5000 131.5000 120.7500 Du        
   2600 ****       118.5000 131.5000 121.0000 Du        
   2601 ****       118.5000 131.5000 121.2500 Du        
   2602 ****       118.5000 131.5000 121.5000 Du        
   2603 ****       118.5000 131.5000 121.7500 Du        
   2604 ****       118.5000 131.5000 122.0000 Du        
   2605 ****       118.5000 131.5000 122.2500 Du        
   2606 ****       118.5000 131.5000 122.5000 Du        
   2607 ****       118.5000 131.5000 122.7500 Du        
   2608 ****       118.5000 131.5000 123.0000 Du        
   2609 ****       118.5000 131.5000 123.2500 Du        
   2610 ****       118.5000 131.5000 123.5000 Du        
   2611 ****       118.5000 131.5000 123.7500 Du        
   2612 ****       118.5000 131.5000 124.0000 Du        
   2613 ****       118.5000 131.5000 124.2500 Du        
   2614 ****       118.5000 131.5000 124.5000 Du        
   2615 ****       118.5000 131.5000 124.7500 Du        
   2616 ****       118.5000 131.5000 125.0000 Du        
   2617 ****       118.5000 131.5000 125.2500 Du        
   2618 ****       118.5000 131.7500 120.7500 Du        
   2619 ****       118.5000 131.7500 121.0000 Du        
   2620 ****       118.5000 131.7500 121.2500 Du        
   2621 ****       118.5000 131.7500 121.5000 Du        
   2622 ****       118.5000 131.7500 121.7500 Du        
   2623 ****       118.5000 131.7500 122.0000 Du        
   2624 ****       118.5000 131.7500 122.2500 Du        
   2625 ****       118.5000 131.7500 122.5000 Du        
   2626 ****       118.5000 131.7500 122.7500 Du        
   2627 ****       118.5000 131.7500 123.0000 Du        
   2628 ****       118.5000 131.7500 123.2500 Du        
   2629 ****       118.5000 131.7500 123.5000 Du        
   2630 ****       118.5000 131.7500 123.7500 Du        
   2631 ****       118.5000 131.7500 124.0000 Du        
   2632 ****       118.5000 131.7500 124.2500 Du        
   2633 ****       118.5000 131.7500 124.5000 Du        
   2634 ****       118.5000 131.7500 124.7500 Du        
   2635 ****       118.5000 131.7500 125.0000 Du        
   2636 ****       118.5000 132.0000 121.0000 Du        
   2637 ****       118.5000 132.0000 121.2500 Du        
   2638 ****       118.5000 132.0000 121.5000 Du        
   2639 ****       118.5000 132.0000 121.7500 Du        
   2640 ****       118.5000 132.0000 122.0000 Du        
   2641 ****       118.5000 132.0000 122.2500 Du        
   2642 ****       118.5000 132.0000 122.5000 Du        
   2643 ****       118.5000 132.0000 122.7500 Du        
   2644 ****       118.5000 132.0000 123.0000 Du        
   2645 ****       118.5000 132.0000 123.2500 Du        
   2646 ****       118.5000 132.0000 123.5000 Du        
   2647 ****       118.5000 132.0000 123.7500 Du        
   2648 ****       118.5000 132.0000 124.0000 Du        
   2649 ****       118.5000 132.0000 124.2500 Du        
   2650 ****       118.5000 132.0000 124.5000 Du        
   2651 ****       118.5000 132.0000 124.7500 Du        
   2652 ****       118.5000 132.2500 121.0000 Du        
   2653 ****       118.5000 132.2500 121.2500 Du        
   2654 ****       118.5000 132.2500 121.5000 Du        
   2655 ****       118.5000 132.2500 121.7500 Du        
   2656 ****       118.5000 132.2500 122.0000 Du        
   2657 ****       118.5000 132.2500 122.2500 Du        
   2658 ****       118.5000 132.2500 122.5000 Du        
   2659 ****       118.5000 132.2500 122.7500 Du        
   2660 ****       118.5000 132.2500 123.0000 Du        
   2661 ****       118.5000 132.2500 123.2500 Du        
   2662 ****       118.5000 132.2500 123.5000 Du        
   2663 ****       118.5000 132.2500 123.7500 Du        
   2664 ****       118.5000 132.2500 124.0000 Du        
   2665 ****       118.5000 132.2500 124.2500 Du        
   2666 ****       118.5000 132.5000 121.2500 Du        
   2667 ****       118.5000 132.5000 121.5000 Du        
   2668 ****       118.5000 132.5000 121.7500 Du        
   2669 ****       118.5000 132.5000 122.0000 Du        
   2670 ****       118.5000 132.5000 122.2500 Du        
   2671 ****       118.5000 132.5000 122.5000 Du        
   2672 ****       118.5000 132.5000 122.7500 Du        
   2673 ****       118.5000 132.5000 123.0000 Du        
   2674 ****       118.5000 132.5000 123.2500 Du        
   2675 ****       118.5000 132.5000 123.5000 Du        
   2676 ****       118.5000 132.5000 123.7500 Du        
   2677 ****       118.5000 132.5000 124.0000 Du        
   2678 ****       118.5000 132.7500 121.5000 Du        
   2679 ****       118.5000 132.7500 121.7500 Du        
   2680 ****       118.5000 132.7500 122.0000 Du        
   2681 ****       118.5000 132.7500 122.2500 Du        
   2682 ****       118.5000 132.7500 122.5000 Du        
   2683 ****       118.5000 132.7500 122.7500 Du        
   2684 ****       118.5000 132.7500 123.0000 Du        
   2685 ****       118.5000 132.7500 123.2500 Du        
   2686 ****       118.5000 133.0000 121.7500 Du        
   2687 ****       118.5000 133.0000 122.0000 Du        
   2688 ****       118.5000 133.0000 122.2500 Du        
   2689 ****       118.5000 133.0000 122.5000 Du        
   2690 ****       118.5000 134.5000 138.7500 Du        
   2691 ****       118.5000 134.5000 139.0000 Du        
   2692 ****       118.5000 134.5000 139.2500 Du        
   2693 ****       118.5000 134.5000 170.0000 Du        
   2694 ****       118.5000 134.7500 138.5000 Du        
   2695 ****       118.5000 134.7500 138.7500 Du        
   2696 ****       118.5000 134.7500 139.0000 Du        
   2697 ****       118.5000 134.7500 139.2500 Du        
   2698 ****       118.5000 134.7500 169.7500 Du        
   2699 ****       118.5000 134.7500 170.0000 Du        
   2700 ****       118.5000 135.0000 138.5000 Du        
   2701 ****       118.5000 135.0000 138.7500 Du        
   2702 ****       118.5000 135.0000 139.0000 Du        
   2703 ****       118.5000 135.0000 139.2500 Du        
   2704 ****       118.5000 135.0000 169.7500 Du        
   2705 ****       118.5000 135.0000 170.0000 Du        
   2706 ****       118.5000 135.2500 138.5000 Du        
   2707 ****       118.5000 135.2500 138.7500 Du        
   2708 ****       118.5000 135.2500 139.0000 Du        
   2709 ****       118.5000 135.2500 169.5000 Du        
   2710 ****       118.5000 135.2500 169.7500 Du        
   2711 ****       118.5000 135.2500 170.0000 Du        
   2712 ****       118.5000 135.5000 169.2500 Du        
   2713 ****       118.5000 135.5000 169.7500 Du        
   2714 ****       118.5000 135.5000 170.0000 Du        
   2715 ****       118.5000 136.7500 159.0000 Du        
   2716 ****       118.5000 137.0000 158.7500 Du        
   2717 ****       118.5000 137.0000 159.0000 Du        
   2718 ****       118.5000 137.2500 158.7500 Du        
   2719 ****       118.5000 139.7500 158.5000 Du        
   2720 ****       118.5000 139.7500 158.7500 Du        
   2721 ****       118.5000 140.0000 158.5000 Du        
   2722 ****       118.5000 140.0000 158.7500 Du        
   2723 ****       118.5000 140.0000 159.0000 Du        
   2724 ****       118.5000 140.2500 158.5000 Du        
   2725 ****       118.5000 140.2500 158.7500 Du        
   2726 ****       118.5000 140.2500 159.0000 Du        
   2727 ****       118.5000 140.5000 158.5000 Du        
   2728 ****       118.5000 140.5000 158.7500 Du        
   2729 ****       118.5000 140.5000 159.0000 Du        
   2730 ****       118.5000 140.7500 158.5000 Du        
   2731 ****       118.5000 140.7500 158.7500 Du        
   2732 ****       118.5000 140.7500 159.0000 Du        
   2733 ****       118.5000 140.7500 159.2500 Du        
   2734 ****       118.5000 141.0000 158.7500 Du        
   2735 ****       118.5000 141.0000 159.0000 Du        
   2736 ****       118.5000 141.0000 159.2500 Du        
   2737 ****       118.5000 141.0000 159.5000 Du        
   2738 ****       118.5000 141.2500 158.7500 Du        
   2739 ****       118.5000 141.2500 159.0000 Du        
   2740 ****       118.5000 141.2500 159.2500 Du        
   2741 ****       118.5000 141.2500 159.5000 Du        
   2742 ****       118.5000 141.5000 159.0000 Du        
   2743 ****       118.5000 141.5000 159.2500 Du        
   2744 ****       118.5000 141.5000 159.5000 Du        
   2745 ****       118.5000 141.5000 159.7500 Du        
   2746 ****       118.5000 141.7500 159.5000 Du        
   2747 ****       118.5000 143.0000 128.5000 Du        
   2748 ****       118.5000 143.2500 128.2500 Du        
   2749 ****       118.5000 143.2500 128.5000 Du        
   2750 ****       118.5000 143.2500 161.7500 Du        
   2751 ****       118.5000 143.2500 162.0000 Du        
   2752 ****       118.5000 143.5000 128.5000 Du        
   2753 ****       118.5000 143.5000 128.7500 Du        
   2754 ****       118.5000 143.5000 162.0000 Du        
   2755 ****       118.5000 143.5000 162.2500 Du        
   2756 ****       118.5000 143.5000 162.5000 Du        
   2757 ****       118.5000 143.5000 162.7500 Du        
   2758 ****       118.5000 143.7500 128.2500 Du        
   2759 ****       118.5000 143.7500 128.5000 Du        
   2760 ****       118.5000 143.7500 128.7500 Du        
   2761 ****       118.5000 143.7500 162.0000 Du        
   2762 ****       118.5000 143.7500 162.2500 Du        
   2763 ****       118.5000 143.7500 162.5000 Du        
   2764 ****       118.5000 143.7500 162.7500 Du        
   2765 ****       118.5000 143.7500 163.0000 Du        
   2766 ****       118.5000 143.7500 163.2500 Du        
   2767 ****       118.5000 144.0000 128.5000 Du        
   2768 ****       118.5000 144.0000 162.5000 Du        
   2769 ****       118.5000 144.0000 162.7500 Du        
   2770 ****       118.5000 144.0000 163.0000 Du        
   2771 ****       118.5000 144.0000 163.2500 Du        
   2772 ****       118.5000 144.0000 163.5000 Du        
   2773 ****       118.5000 144.2500 162.7500 Du        
   2774 ****       118.5000 144.2500 163.0000 Du        
   2775 ****       118.5000 144.2500 163.2500 Du        
   2776 ****       118.5000 144.2500 163.5000 Du        
   2777 ****       118.5000 144.2500 163.7500 Du        
   2778 ****       118.5000 144.5000 163.0000 Du        
   2779 ****       118.5000 144.5000 163.2500 Du        
   2780 ****       118.5000 144.5000 163.5000 Du        
   2781 ****       118.5000 144.5000 163.7500 Du        
   2782 ****       118.5000 144.7500 163.5000 Du        
   2783 ****       118.5000 148.7500 108.0000 Du        
   2784 ****       118.5000 149.0000 108.2500 Du        
   2785 ****       118.5000 152.2500  91.7500 Du        
   2786 ****       118.5000 152.5000  91.7500 Du        
   2787 ****       118.5000 152.7500  91.5000 Du        
   2788 ****       118.5000 152.7500  91.7500 Du        
   2789 ****       118.5000 152.7500  92.0000 Du        
   2790 ****       118.5000 153.0000  91.5000 Du        
   2791 ****       118.5000 153.0000  91.7500 Du        
   2792 ****       118.5000 153.0000  92.0000 Du        
   2793 ****       118.5000 153.2500  91.5000 Du        
   2794 ****       118.5000 153.2500  91.7500 Du        
   2795 ****       118.5000 153.2500  92.0000 Du        
   2796 ****       118.5000 153.2500 154.5000 Du        
   2797 ****       118.5000 153.2500 154.7500 Du        
   2798 ****       118.5000 153.2500 155.0000 Du        
   2799 ****       118.5000 153.5000 154.5000 Du        
   2800 ****       118.5000 153.5000 154.7500 Du        
   2801 ****       118.5000 153.5000 155.0000 Du        
   2802 ****       118.5000 153.5000 155.2500 Du        
   2803 ****       118.5000 153.5000 155.5000 Du        
   2804 ****       118.5000 153.7500 155.0000 Du        
   2805 ****       118.5000 153.7500 155.2500 Du        
   2806 ****       118.5000 153.7500 155.5000 Du        
   2807 ****       118.5000 154.0000 155.5000 Du        
   2808 ****       118.5000 154.0000 155.7500 Du        
   2809 ****       118.7500 121.0000 131.0000 Du        
   2810 ****       118.7500 121.0000 131.2500 Du        
   2811 ****       118.7500 121.0000 131.5000 Du        
   2812 ****       118.7500 121.0000 131.7500 Du        
   2813 ****       118.7500 121.0000 132.0000 Du        
   2814 ****       118.7500 121.0000 132.2500 Du        
   2815 ****       118.7500 121.2500 130.7500 Du        
   2816 ****       118.7500 121.2500 131.0000 Du        
   2817 ****       118.7500 121.2500 131.2500 Du        
   2818 ****       118.7500 121.2500 131.5000 Du        
   2819 ****       118.7500 121.2500 131.7500 Du        
   2820 ****       118.7500 121.2500 132.0000 Du        
   2821 ****       118.7500 121.5000 130.7500 Du        
   2822 ****       118.7500 121.5000 131.0000 Du        
   2823 ****       118.7500 121.5000 131.2500 Du        
   2824 ****       118.7500 121.5000 131.5000 Du        
   2825 ****       118.7500 121.5000 131.7500 Du        
   2826 ****       118.7500 121.7500 131.0000 Du        
   2827 ****       118.7500 122.2500 164.5000 Du        
   2828 ****       118.7500 127.0000 105.0000 Du        
   2829 ****       118.7500 127.0000 105.2500 Du        
   2830 ****       118.7500 127.2500 104.2500 Du        
   2831 ****       118.7500 127.2500 104.5000 Du        
   2832 ****       118.7500 127.2500 104.7500 Du        
   2833 ****       118.7500 127.2500 105.0000 Du        
   2834 ****       118.7500 127.2500 105.2500 Du        
   2835 ****       118.7500 127.5000 103.7500 Du        
   2836 ****       118.7500 127.5000 104.0000 Du        
   2837 ****       118.7500 127.5000 104.2500 Du        
   2838 ****       118.7500 127.5000 104.5000 Du        
   2839 ****       118.7500 127.5000 104.7500 Du        
   2840 ****       118.7500 127.5000 105.0000 Du        
   2841 ****       118.7500 127.5000 105.2500 Du        
   2842 ****       118.7500 127.7500 103.7500 Du        
   2843 ****       118.7500 127.7500 104.0000 Du        
   2844 ****       118.7500 127.7500 104.2500 Du        
   2845 ****       118.7500 127.7500 104.5000 Du        
   2846 ****       118.7500 127.7500 104.7500 Du        
   2847 ****       118.7500 127.7500 105.0000 Du        
   2848 ****       118.7500 127.7500 105.2500 Du        
   2849 ****       118.7500 128.0000 103.7500 Du        
   2850 ****       118.7500 128.0000 104.0000 Du        
   2851 ****       118.7500 128.0000 104.2500 Du        
   2852 ****       118.7500 128.0000 104.5000 Du        
   2853 ****       118.7500 128.0000 104.7500 Du        
   2854 ****       118.7500 128.0000 105.0000 Du        
   2855 ****       118.7500 128.0000 105.2500 Du        
   2856 ****       118.7500 128.2500 104.0000 Du        
   2857 ****       118.7500 128.2500 104.2500 Du        
   2858 ****       118.7500 128.2500 104.5000 Du        
   2859 ****       118.7500 128.2500 104.7500 Du        
   2860 ****       118.7500 128.2500 105.0000 Du        
   2861 ****       118.7500 128.2500 105.2500 Du        
   2862 ****       118.7500 128.5000 104.0000 Du        
   2863 ****       118.7500 128.5000 104.2500 Du        
   2864 ****       118.7500 128.5000 104.5000 Du        
   2865 ****       118.7500 128.5000 104.7500 Du        
   2866 ****       118.7500 128.5000 105.0000 Du        
   2867 ****       118.7500 128.7500 104.5000 Du        
   2868 ****       118.7500 128.7500 104.7500 Du        
   2869 ****       118.7500 130.2500 125.5000 Du        
   2870 ****       118.7500 130.2500 125.7500 Du        
   2871 ****       118.7500 130.2500 126.0000 Du        
   2872 ****       118.7500 130.5000 125.2500 Du        
   2873 ****       118.7500 130.5000 125.5000 Du        
   2874 ****       118.7500 130.5000 125.7500 Du        
   2875 ****       118.7500 130.5000 126.0000 Du        
   2876 ****       118.7500 130.7500 125.0000 Du        
   2877 ****       118.7500 130.7500 125.2500 Du        
   2878 ****       118.7500 130.7500 125.5000 Du        
   2879 ****       118.7500 130.7500 125.7500 Du        
   2880 ****       118.7500 130.7500 126.0000 Du        
   2881 ****       118.7500 131.0000 124.7500 Du        
   2882 ****       118.7500 131.0000 125.0000 Du        
   2883 ****       118.7500 131.0000 125.2500 Du        
   2884 ****       118.7500 131.0000 125.5000 Du        
   2885 ****       118.7500 131.0000 125.7500 Du        
   2886 ****       118.7500 131.2500 120.7500 Du        
   2887 ****       118.7500 131.2500 121.0000 Du        
   2888 ****       118.7500 131.2500 121.2500 Du        
   2889 ****       118.7500 131.2500 121.5000 Du        
   2890 ****       118.7500 131.2500 124.7500 Du        
   2891 ****       118.7500 131.2500 125.0000 Du        
   2892 ****       118.7500 131.2500 125.2500 Du        
   2893 ****       118.7500 131.5000 120.5000 Du        
   2894 ****       118.7500 131.5000 120.7500 Du        
   2895 ****       118.7500 131.5000 121.0000 Du        
   2896 ****       118.7500 131.5000 121.2500 Du        
   2897 ****       118.7500 131.5000 121.5000 Du        
   2898 ****       118.7500 131.5000 121.7500 Du        
   2899 ****       118.7500 131.5000 122.0000 Du        
   2900 ****       118.7500 131.5000 122.2500 Du        
   2901 ****       118.7500 131.5000 122.5000 Du        
   2902 ****       118.7500 131.7500 120.5000 Du        
   2903 ****       118.7500 131.7500 120.7500 Du        
   2904 ****       118.7500 131.7500 121.0000 Du        
   2905 ****       118.7500 131.7500 121.2500 Du        
   2906 ****       118.7500 131.7500 121.5000 Du        
   2907 ****       118.7500 131.7500 121.7500 Du        
   2908 ****       118.7500 131.7500 122.0000 Du        
   2909 ****       118.7500 131.7500 122.2500 Du        
   2910 ****       118.7500 131.7500 122.5000 Du        
   2911 ****       118.7500 131.7500 122.7500 Du        
   2912 ****       118.7500 132.0000 120.5000 Du        
   2913 ****       118.7500 132.0000 120.7500 Du        
   2914 ****       118.7500 132.0000 121.0000 Du        
   2915 ****       118.7500 132.0000 121.2500 Du        
   2916 ****       118.7500 132.0000 121.5000 Du        
   2917 ****       118.7500 132.0000 121.7500 Du        
   2918 ****       118.7500 132.0000 122.0000 Du        
   2919 ****       118.7500 132.0000 122.2500 Du        
   2920 ****       118.7500 132.0000 122.5000 Du        
   2921 ****       118.7500 132.0000 122.7500 Du        
   2922 ****       118.7500 132.0000 123.0000 Du        
   2923 ****       118.7500 132.2500 120.7500 Du        
   2924 ****       118.7500 132.2500 121.0000 Du        
   2925 ****       118.7500 132.2500 121.2500 Du        
   2926 ****       118.7500 132.2500 121.5000 Du        
   2927 ****       118.7500 132.2500 121.7500 Du        
   2928 ****       118.7500 132.2500 122.0000 Du        
   2929 ****       118.7500 132.2500 122.2500 Du        
   2930 ****       118.7500 132.2500 122.5000 Du        
   2931 ****       118.7500 132.2500 122.7500 Du        
   2932 ****       118.7500 132.2500 123.0000 Du        
   2933 ****       118.7500 132.5000 120.7500 Du        
   2934 ****       118.7500 132.5000 121.0000 Du        
   2935 ****       118.7500 132.5000 121.2500 Du        
   2936 ****       118.7500 132.5000 121.5000 Du        
   2937 ****       118.7500 132.5000 121.7500 Du        
   2938 ****       118.7500 132.5000 122.0000 Du        
   2939 ****       118.7500 132.5000 122.2500 Du        
   2940 ****       118.7500 132.5000 122.5000 Du        
   2941 ****       118.7500 132.5000 122.7500 Du        
   2942 ****       118.7500 132.5000 123.0000 Du        
   2943 ****       118.7500 132.7500 121.0000 Du        
   2944 ****       118.7500 132.7500 121.2500 Du        
   2945 ****       118.7500 132.7500 121.5000 Du        
   2946 ****       118.7500 132.7500 121.7500 Du        
   2947 ****       118.7500 132.7500 122.0000 Du        
   2948 ****       118.7500 132.7500 122.2500 Du        
   2949 ****       118.7500 132.7500 122.5000 Du        
   2950 ****       118.7500 132.7500 122.7500 Du        
   2951 ****       118.7500 133.0000 121.5000 Du        
   2952 ****       118.7500 133.0000 121.7500 Du        
   2953 ****       118.7500 133.0000 122.0000 Du        
   2954 ****       118.7500 133.0000 122.2500 Du        
   2955 ****       118.7500 134.2500 170.0000 Du        
   2956 ****       118.7500 134.5000 138.5000 Du        
   2957 ****       118.7500 134.5000 138.7500 Du        
   2958 ****       118.7500 134.5000 139.0000 Du        
   2959 ****       118.7500 134.5000 139.2500 Du        
   2960 ****       118.7500 134.5000 170.0000 Du        
   2961 ****       118.7500 134.7500 138.2500 Du        
   2962 ****       118.7500 134.7500 138.5000 Du        
   2963 ****       118.7500 134.7500 138.7500 Du        
   2964 ****       118.7500 134.7500 139.0000 Du        
   2965 ****       118.7500 134.7500 139.2500 Du        
   2966 ****       118.7500 134.7500 169.7500 Du        
   2967 ****       118.7500 134.7500 170.0000 Du        
   2968 ****       118.7500 135.0000 138.2500 Du        
   2969 ****       118.7500 135.0000 138.5000 Du        
   2970 ****       118.7500 135.0000 138.7500 Du        
   2971 ****       118.7500 135.0000 139.0000 Du        
   2972 ****       118.7500 135.0000 139.2500 Du        
   2973 ****       118.7500 135.0000 169.7500 Du        
   2974 ****       118.7500 135.0000 170.0000 Du        
   2975 ****       118.7500 135.2500 169.7500 Du        
   2976 ****       118.7500 135.2500 170.0000 Du        
   2977 ****       118.7500 137.0000 158.7500 Du        
   2978 ****       118.7500 137.2500 158.5000 Du        
   2979 ****       118.7500 137.2500 158.7500 Du        
   2980 ****       118.7500 137.2500 159.0000 Du        
   2981 ****       118.7500 137.5000 158.5000 Du        
   2982 ****       118.7500 137.5000 158.7500 Du        
   2983 ****       118.7500 137.7500 158.7500 Du        
   2984 ****       118.7500 139.2500 158.5000 Du        
   2985 ****       118.7500 139.5000 158.5000 Du        
   2986 ****       118.7500 139.5000 158.7500 Du        
   2987 ****       118.7500 139.7500 158.7500 Du        
   2988 ****       118.7500 140.0000 158.5000 Du        
   2989 ****       118.7500 140.0000 158.7500 Du        
   2990 ****       118.7500 140.2500 158.5000 Du        
   2991 ****       118.7500 140.2500 158.7500 Du        
   2992 ****       118.7500 140.2500 159.0000 Du        
   2993 ****       118.7500 140.5000 158.5000 Du        
   2994 ****       118.7500 140.5000 158.7500 Du        
   2995 ****       118.7500 140.5000 159.0000 Du        
   2996 ****       118.7500 140.7500 158.5000 Du        
   2997 ****       118.7500 140.7500 158.7500 Du        
   2998 ****       118.7500 140.7500 159.0000 Du        
   2999 ****       118.7500 141.0000 158.5000 Du        
   3000 ****       118.7500 141.0000 158.7500 Du        
   3001 ****       118.7500 141.0000 159.0000 Du        
   3002 ****       118.7500 141.0000 159.2500 Du        
   3003 ****       118.7500 141.2500 158.7500 Du        
   3004 ****       118.7500 141.2500 159.0000 Du        
   3005 ****       118.7500 141.2500 159.2500 Du        
   3006 ****       118.7500 141.5000 139.0000 Du        
   3007 ****       118.7500 141.5000 139.2500 Du        
   3008 ****       118.7500 141.5000 158.5000 Du        
   3009 ****       118.7500 141.5000 158.7500 Du        
   3010 ****       118.7500 141.5000 159.0000 Du        
   3011 ****       118.7500 141.5000 159.2500 Du        
   3012 ****       118.7500 141.5000 159.5000 Du        
   3013 ****       118.7500 141.7500 138.7500 Du        
   3014 ****       118.7500 141.7500 139.0000 Du        
   3015 ****       118.7500 141.7500 139.2500 Du        
   3016 ****       118.7500 141.7500 159.2500 Du        
   3017 ****       118.7500 141.7500 159.5000 Du        
   3018 ****       118.7500 142.0000 138.5000 Du        
   3019 ****       118.7500 142.0000 138.7500 Du        
   3020 ****       118.7500 142.0000 139.0000 Du        
   3021 ****       118.7500 142.0000 139.2500 Du        
   3022 ****       118.7500 142.2500 138.7500 Du        
   3023 ****       118.7500 142.2500 139.0000 Du        
   3024 ****       118.7500 142.5000 138.7500 Du        
   3025 ****       118.7500 142.5000 139.0000 Du        
   3026 ****       118.7500 143.2500 161.5000 Du        
   3027 ****       118.7500 143.2500 161.7500 Du        
   3028 ****       118.7500 143.2500 162.0000 Du        
   3029 ****       118.7500 143.5000 161.7500 Du        
   3030 ****       118.7500 143.5000 162.0000 Du        
   3031 ****       118.7500 143.5000 162.2500 Du        
   3032 ****       118.7500 143.5000 162.5000 Du        
   3033 ****       118.7500 143.7500 128.2500 Du        
   3034 ****       118.7500 143.7500 128.5000 Du        
   3035 ****       118.7500 143.7500 162.0000 Du        
   3036 ****       118.7500 143.7500 162.2500 Du        
   3037 ****       118.7500 143.7500 162.5000 Du        
   3038 ****       118.7500 143.7500 162.7500 Du        
   3039 ****       118.7500 143.7500 163.0000 Du        
   3040 ****       118.7500 144.0000 128.2500 Du        
   3041 ****       118.7500 144.0000 128.5000 Du        
   3042 ****       118.7500 144.0000 162.5000 Du        
   3043 ****       118.7500 144.0000 162.7500 Du        
   3044 ****       118.7500 144.0000 163.0000 Du        
   3045 ****       118.7500 144.0000 163.2500 Du        
   3046 ****       118.7500 144.2500 163.0000 Du        
   3047 ****       118.7500 144.2500 163.2500 Du        
   3048 ****       118.7500 144.2500 163.5000 Du        
   3049 ****       118.7500 144.5000 163.2500 Du        
   3050 ****       118.7500 144.5000 163.5000 Du        
   3051 ****       118.7500 148.7500 107.7500 Du        
   3052 ****       118.7500 148.7500 108.0000 Du        
   3053 ****       118.7500 148.7500 108.2500 Du        
   3054 ****       118.7500 149.0000 108.0000 Du        
   3055 ****       118.7500 149.0000 108.2500 Du        
   3056 ****       118.7500 149.0000 108.5000 Du        
   3057 ****       118.7500 149.2500 108.2500 Du        
   3058 ****       118.7500 152.2500  91.7500 Du        
   3059 ****       118.7500 152.2500  92.0000 Du        
   3060 ****       118.7500 152.5000  91.7500 Du        
   3061 ****       118.7500 152.5000  92.0000 Du        
   3062 ****       118.7500 152.7500  91.5000 Du        
   3063 ****       118.7500 152.7500  91.7500 Du        
   3064 ****       118.7500 152.7500  92.0000 Du        
   3065 ****       118.7500 153.0000  91.5000 Du        
   3066 ****       118.7500 153.0000  91.7500 Du        
   3067 ****       118.7500 153.0000  92.0000 Du        
   3068 ****       118.7500 153.0000 154.5000 Du        
   3069 ****       118.7500 153.2500  91.2500 Du        
   3070 ****       118.7500 153.2500  91.5000 Du        
   3071 ****       118.7500 153.2500  91.7500 Du        
   3072 ****       118.7500 153.2500  92.0000 Du        
   3073 ****       118.7500 153.2500 154.7500 Du        
   3074 ****       118.7500 153.2500 155.0000 Du        
   3075 ****       118.7500 153.5000  91.2500 Du        
   3076 ****       118.7500 153.5000 154.7500 Du        
   3077 ****       118.7500 153.5000 155.0000 Du        
   3078 ****       118.7500 153.5000 155.2500 Du        
   3079 ****       118.7500 153.7500  91.2500 Du        
   3080 ****       118.7500 153.7500 155.2500 Du        
   3081 ****       118.7500 153.7500 155.5000 Du        
   3082 ****       119.0000 121.0000 131.0000 Du        
   3083 ****       119.0000 121.0000 131.2500 Du        
   3084 ****       119.0000 121.0000 131.5000 Du        
   3085 ****       119.0000 121.0000 131.7500 Du        
   3086 ****       119.0000 121.0000 132.0000 Du        
   3087 ****       119.0000 121.0000 132.2500 Du        
   3088 ****       119.0000 121.2500 131.0000 Du        
   3089 ****       119.0000 121.2500 131.2500 Du        
   3090 ****       119.0000 121.2500 131.5000 Du        
   3091 ****       119.0000 121.2500 131.7500 Du        
   3092 ****       119.0000 121.2500 132.0000 Du        
   3093 ****       119.0000 121.5000 131.2500 Du        
   3094 ****       119.0000 121.5000 131.5000 Du        
   3095 ****       119.0000 126.7500 105.0000 Du        
   3096 ****       119.0000 126.7500 105.2500 Du        
   3097 ****       119.0000 127.0000 104.5000 Du        
   3098 ****       119.0000 127.0000 104.7500 Du        
   3099 ****       119.0000 127.0000 105.0000 Du        
   3100 ****       119.0000 127.0000 105.2500 Du        
   3101 ****       119.0000 127.2500 104.0000 Du        
   3102 ****       119.0000 127.2500 104.2500 Du        
   3103 ****       119.0000 127.2500 104.5000 Du        
   3104 ****       119.0000 127.2500 104.7500 Du        
   3105 ****       119.0000 127.2500 105.0000 Du        
   3106 ****       119.0000 127.2500 105.2500 Du        
   3107 ****       119.0000 127.5000 103.7500 Du        
   3108 ****       119.0000 127.5000 104.0000 Du        
   3109 ****       119.0000 127.5000 104.2500 Du        
   3110 ****       119.0000 127.5000 104.5000 Du        
   3111 ****       119.0000 127.5000 104.7500 Du        
   3112 ****       119.0000 127.5000 105.0000 Du        
   3113 ****       119.0000 127.5000 105.2500 Du        
   3114 ****       119.0000 127.7500 103.7500 Du        
   3115 ****       119.0000 127.7500 104.0000 Du        
   3116 ****       119.0000 127.7500 104.2500 Du        
   3117 ****       119.0000 127.7500 104.5000 Du        
   3118 ****       119.0000 127.7500 104.7500 Du        
   3119 ****       119.0000 127.7500 105.0000 Du        
   3120 ****       119.0000 127.7500 105.2500 Du        
   3121 ****       119.0000 128.0000 103.7500 Du        
   3122 ****       119.0000 128.0000 104.0000 Du        
   3123 ****       119.0000 128.0000 104.2500 Du        
   3124 ****       119.0000 128.0000 104.5000 Du        
   3125 ****       119.0000 128.0000 104.7500 Du        
   3126 ****       119.0000 128.0000 105.0000 Du        
   3127 ****       119.0000 128.0000 105.2500 Du        
   3128 ****       119.0000 128.2500 104.0000 Du        
   3129 ****       119.0000 128.2500 104.2500 Du        
   3130 ****       119.0000 128.2500 104.5000 Du        
   3131 ****       119.0000 128.2500 104.7500 Du        
   3132 ****       119.0000 128.2500 105.0000 Du        
   3133 ****       119.0000 128.5000 104.0000 Du        
   3134 ****       119.0000 128.5000 104.2500 Du        
   3135 ****       119.0000 128.5000 104.5000 Du        
   3136 ****       119.0000 128.5000 104.7500 Du        
   3137 ****       119.0000 128.5000 105.0000 Du        
   3138 ****       119.0000 128.7500 104.5000 Du        
   3139 ****       119.0000 130.7500 125.2500 Du        
   3140 ****       119.0000 130.7500 125.5000 Du        
   3141 ****       119.0000 130.7500 125.7500 Du        
   3142 ****       119.0000 131.2500 120.7500 Du        
   3143 ****       119.0000 131.2500 121.0000 Du        
   3144 ****       119.0000 131.2500 121.2500 Du        
   3145 ****       119.0000 131.5000 120.7500 Du        
   3146 ****       119.0000 131.5000 121.0000 Du        
   3147 ****       119.0000 131.5000 121.2500 Du        
   3148 ****       119.0000 131.5000 121.5000 Du        
   3149 ****       119.0000 131.5000 121.7500 Du        
   3150 ****       119.0000 131.5000 122.0000 Du        
   3151 ****       119.0000 131.7500 120.5000 Du        
   3152 ****       119.0000 131.7500 120.7500 Du        
   3153 ****       119.0000 131.7500 121.0000 Du        
   3154 ****       119.0000 131.7500 121.2500 Du        
   3155 ****       119.0000 131.7500 121.5000 Du        
   3156 ****       119.0000 131.7500 121.7500 Du        
   3157 ****       119.0000 131.7500 122.0000 Du        
   3158 ****       119.0000 131.7500 122.2500 Du        
   3159 ****       119.0000 132.0000 120.5000 Du        
   3160 ****       119.0000 132.0000 120.7500 Du        
   3161 ****       119.0000 132.0000 121.0000 Du        
   3162 ****       119.0000 132.0000 121.2500 Du        
   3163 ****       119.0000 132.0000 121.5000 Du        
   3164 ****       119.0000 132.0000 121.7500 Du        
   3165 ****       119.0000 132.0000 122.0000 Du        
   3166 ****       119.0000 132.0000 122.2500 Du        
   3167 ****       119.0000 132.0000 122.5000 Du        
   3168 ****       119.0000 132.2500 120.5000 Du        
   3169 ****       119.0000 132.2500 120.7500 Du        
   3170 ****       119.0000 132.2500 121.0000 Du        
   3171 ****       119.0000 132.2500 121.2500 Du        
   3172 ****       119.0000 132.2500 121.5000 Du        
   3173 ****       119.0000 132.2500 121.7500 Du        
   3174 ****       119.0000 132.2500 122.0000 Du        
   3175 ****       119.0000 132.2500 122.2500 Du        
   3176 ****       119.0000 132.2500 122.5000 Du        
   3177 ****       119.0000 132.5000 120.5000 Du        
   3178 ****       119.0000 132.5000 120.7500 Du        
   3179 ****       119.0000 132.5000 121.0000 Du        
   3180 ****       119.0000 132.5000 121.2500 Du        
   3181 ****       119.0000 132.5000 121.5000 Du        
   3182 ****       119.0000 132.5000 121.7500 Du        
   3183 ****       119.0000 132.5000 122.0000 Du        
   3184 ****       119.0000 132.5000 122.2500 Du        
   3185 ****       119.0000 132.5000 122.5000 Du        
   3186 ****       119.0000 132.7500 120.7500 Du        
   3187 ****       119.0000 132.7500 121.0000 Du        
   3188 ****       119.0000 132.7500 121.2500 Du        
   3189 ****       119.0000 132.7500 121.5000 Du        
   3190 ****       119.0000 132.7500 121.7500 Du        
   3191 ****       119.0000 132.7500 122.0000 Du        
   3192 ****       119.0000 132.7500 122.2500 Du        
   3193 ****       119.0000 133.0000 121.2500 Du        
   3194 ****       119.0000 133.0000 121.5000 Du        
   3195 ****       119.0000 133.0000 121.7500 Du        
   3196 ****       119.0000 133.0000 122.0000 Du        
   3197 ****       119.0000 134.2500 170.0000 Du        
   3198 ****       119.0000 134.5000 138.2500 Du        
   3199 ****       119.0000 134.5000 138.5000 Du        
   3200 ****       119.0000 134.5000 138.7500 Du        
   3201 ****       119.0000 134.5000 139.0000 Du        
   3202 ****       119.0000 134.5000 139.2500 Du        
   3203 ****       119.0000 134.5000 170.0000 Du        
   3204 ****       119.0000 134.7500 138.2500 Du        
   3205 ****       119.0000 134.7500 138.5000 Du        
   3206 ****       119.0000 134.7500 138.7500 Du        
   3207 ****       119.0000 134.7500 139.0000 Du        
   3208 ****       119.0000 134.7500 139.2500 Du        
   3209 ****       119.0000 134.7500 169.7500 Du        
   3210 ****       119.0000 134.7500 170.0000 Du        
   3211 ****       119.0000 135.0000 138.2500 Du        
   3212 ****       119.0000 135.0000 138.5000 Du        
   3213 ****       119.0000 135.0000 138.7500 Du        
   3214 ****       119.0000 135.0000 139.0000 Du        
   3215 ****       119.0000 135.0000 169.7500 Du        
   3216 ****       119.0000 135.0000 170.0000 Du        
   3217 ****       119.0000 137.5000 158.5000 Du        
   3218 ****       119.0000 137.5000 158.7500 Du        
   3219 ****       119.0000 137.7500 158.5000 Du        
   3220 ****       119.0000 137.7500 158.7500 Du        
   3221 ****       119.0000 138.0000 158.5000 Du        
   3222 ****       119.0000 138.0000 158.7500 Du        
   3223 ****       119.0000 140.5000 158.5000 Du        
   3224 ****       119.0000 140.5000 158.7500 Du        
   3225 ****       119.0000 140.7500 158.5000 Du        
   3226 ****       119.0000 140.7500 158.7500 Du        
   3227 ****       119.0000 141.0000 158.5000 Du        
   3228 ****       119.0000 141.0000 158.7500 Du        
   3229 ****       119.0000 141.0000 159.0000 Du        
   3230 ****       119.0000 141.2500 158.7500 Du        
   3231 ****       119.0000 141.2500 159.0000 Du        
   3232 ****       119.0000 141.2500 159.2500 Du        
   3233 ****       119.0000 141.5000 139.0000 Du        
   3234 ****       119.0000 141.5000 139.2500 Du        
   3235 ****       119.0000 141.5000 158.7500 Du        
   3236 ****       119.0000 141.5000 159.0000 Du        
   3237 ****       119.0000 141.5000 159.2500 Du        
   3238 ****       119.0000 141.7500 138.5000 Du        
   3239 ****       119.0000 141.7500 138.7500 Du        
   3240 ****       119.0000 141.7500 139.0000 Du        
   3241 ****       119.0000 141.7500 139.2500 Du        
   3242 ****       119.0000 141.7500 158.7500 Du        
   3243 ****       119.0000 141.7500 159.0000 Du        
   3244 ****       119.0000 141.7500 159.2500 Du        
   3245 ****       119.0000 141.7500 159.5000 Du        
   3246 ****       119.0000 142.0000 138.2500 Du        
   3247 ****       119.0000 142.0000 138.5000 Du        
   3248 ****       119.0000 142.0000 138.7500 Du        
   3249 ****       119.0000 142.0000 139.0000 Du        
   3250 ****       119.0000 142.0000 139.2500 Du        
   3251 ****       119.0000 142.2500 138.2500 Du        
   3252 ****       119.0000 142.2500 138.5000 Du        
   3253 ****       119.0000 142.2500 138.7500 Du        
   3254 ****       119.0000 142.2500 139.0000 Du        
   3255 ****       119.0000 142.2500 139.2500 Du        
   3256 ****       119.0000 142.5000 138.5000 Du        
   3257 ****       119.0000 142.5000 138.7500 Du        
   3258 ****       119.0000 142.5000 139.0000 Du        
   3259 ****       119.0000 142.7500 138.5000 Du        
   3260 ****       119.0000 142.7500 138.7500 Du        
   3261 ****       119.0000 142.7500 139.0000 Du        
   3262 ****       119.0000 143.0000 138.5000 Du        
   3263 ****       119.0000 143.0000 138.7500 Du        
   3264 ****       119.0000 143.0000 139.0000 Du        
   3265 ****       119.0000 143.2500 161.2500 Du        
   3266 ****       119.0000 143.2500 161.5000 Du        
   3267 ****       119.0000 143.2500 161.7500 Du        
   3268 ****       119.0000 143.2500 162.0000 Du        
   3269 ****       119.0000 143.5000 161.7500 Du        
   3270 ****       119.0000 143.5000 162.0000 Du        
   3271 ****       119.0000 143.5000 162.2500 Du        
   3272 ****       119.0000 143.7500 162.0000 Du        
   3273 ****       119.0000 143.7500 162.2500 Du        
   3274 ****       119.0000 143.7500 162.5000 Du        
   3275 ****       119.0000 144.0000 128.2500 Du        
   3276 ****       119.0000 144.0000 128.5000 Du        
   3277 ****       119.0000 144.0000 162.7500 Du        
   3278 ****       119.0000 144.2500 128.5000 Du        
   3279 ****       119.0000 148.7500 108.0000 Du        
   3280 ****       119.0000 148.7500 108.2500 Du        
   3281 ****       119.0000 149.0000 108.0000 Du        
   3282 ****       119.0000 149.0000 108.2500 Du        
   3283 ****       119.0000 149.0000 108.5000 Du        
   3284 ****       119.0000 149.0000 108.7500 Du        
   3285 ****       119.0000 149.2500 108.2500 Du        
   3286 ****       119.0000 153.0000 154.5000 Du        
   3287 ****       119.0000 153.2500 154.5000 Du        
   3288 ****       119.0000 153.2500 154.7500 Du        
   3289 ****       119.0000 153.2500 155.0000 Du        
   3290 ****       119.0000 153.7500  91.2500 Du        
   3291 ****       119.0000 164.2500 166.2500 Du        
   3292 ****       119.0000 164.2500 166.5000 Du        
   3293 ****       119.2500 121.0000 131.7500 Du        
   3294 ****       119.2500 121.0000 132.0000 Du        
   3295 ****       119.2500 121.0000 132.2500 Du        
   3296 ****       119.2500 126.7500 104.7500 Du        
   3297 ****       119.2500 126.7500 105.0000 Du        
   3298 ****       119.2500 126.7500 105.2500 Du        
   3299 ****       119.2500 127.0000 104.5000 Du        
   3300 ****       119.2500 127.0000 104.7500 Du        
   3301 ****       119.2500 127.0000 105.0000 Du        
   3302 ****       119.2500 127.0000 105.2500 Du        
   3303 ****       119.2500 127.2500 104.0000 Du        
   3304 ****       119.2500 127.2500 104.2500 Du        
   3305 ****       119.2500 127.2500 104.5000 Du        
   3306 ****       119.2500 127.2500 104.7500 Du        
   3307 ****       119.2500 127.2500 105.0000 Du        
   3308 ****       119.2500 127.2500 105.2500 Du        
   3309 ****       119.2500 127.5000 103.7500 Du        
   3310 ****       119.2500 127.5000 104.0000 Du        
   3311 ****       119.2500 127.5000 104.2500 Du        
   3312 ****       119.2500 127.5000 104.5000 Du        
   3313 ****       119.2500 127.5000 104.7500 Du        
   3314 ****       119.2500 127.5000 105.0000 Du        
   3315 ****       119.2500 127.5000 105.2500 Du        
   3316 ****       119.2500 127.7500 103.7500 Du        
   3317 ****       119.2500 127.7500 104.0000 Du        
   3318 ****       119.2500 127.7500 104.2500 Du        
   3319 ****       119.2500 127.7500 104.5000 Du        
   3320 ****       119.2500 127.7500 104.7500 Du        
   3321 ****       119.2500 127.7500 105.0000 Du        
   3322 ****       119.2500 128.0000 103.7500 Du        
   3323 ****       119.2500 128.0000 104.0000 Du        
   3324 ****       119.2500 128.0000 104.2500 Du        
   3325 ****       119.2500 128.0000 104.5000 Du        
   3326 ****       119.2500 128.0000 104.7500 Du        
   3327 ****       119.2500 128.0000 105.0000 Du        
   3328 ****       119.2500 128.2500 104.0000 Du        
   3329 ****       119.2500 128.2500 104.2500 Du        
   3330 ****       119.2500 128.2500 104.5000 Du        
   3331 ****       119.2500 128.2500 104.7500 Du        
   3332 ****       119.2500 128.2500 105.0000 Du        
   3333 ****       119.2500 128.5000 104.2500 Du        
   3334 ****       119.2500 128.5000 104.5000 Du        
   3335 ****       119.2500 128.5000 104.7500 Du        
   3336 ****       119.2500 131.5000 120.7500 Du        
   3337 ****       119.2500 131.5000 121.0000 Du        
   3338 ****       119.2500 131.5000 121.2500 Du        
   3339 ****       119.2500 131.5000 121.5000 Du        
   3340 ****       119.2500 131.5000 121.7500 Du        
   3341 ****       119.2500 131.7500 120.7500 Du        
   3342 ****       119.2500 131.7500 121.0000 Du        
   3343 ****       119.2500 131.7500 121.2500 Du        
   3344 ****       119.2500 131.7500 121.5000 Du        
   3345 ****       119.2500 131.7500 121.7500 Du        
   3346 ****       119.2500 131.7500 122.0000 Du        
   3347 ****       119.2500 132.0000 120.5000 Du        
   3348 ****       119.2500 132.0000 120.7500 Du        
   3349 ****       119.2500 132.0000 121.0000 Du        
   3350 ****       119.2500 132.0000 121.2500 Du        
   3351 ****       119.2500 132.0000 121.5000 Du        
   3352 ****       119.2500 132.0000 121.7500 Du        
   3353 ****       119.2500 132.0000 122.0000 Du        
   3354 ****       119.2500 132.2500 120.5000 Du        
   3355 ****       119.2500 132.2500 120.7500 Du        
   3356 ****       119.2500 132.2500 121.0000 Du        
   3357 ****       119.2500 132.2500 121.2500 Du        
   3358 ****       119.2500 132.2500 121.5000 Du        
   3359 ****       119.2500 132.2500 121.7500 Du        
   3360 ****       119.2500 132.2500 122.0000 Du        
   3361 ****       119.2500 132.2500 122.2500 Du        
   3362 ****       119.2500 132.5000 120.5000 Du        
   3363 ****       119.2500 132.5000 120.7500 Du        
   3364 ****       119.2500 132.5000 121.0000 Du        
   3365 ****       119.2500 132.5000 121.2500 Du        
   3366 ****       119.2500 132.5000 121.5000 Du        
   3367 ****       119.2500 132.5000 121.7500 Du        
   3368 ****       119.2500 132.5000 122.0000 Du        
   3369 ****       119.2500 132.7500 120.5000 Du        
   3370 ****       119.2500 132.7500 120.7500 Du        
   3371 ****       119.2500 132.7500 121.0000 Du        
   3372 ****       119.2500 132.7500 121.2500 Du        
   3373 ****       119.2500 132.7500 121.5000 Du        
   3374 ****       119.2500 132.7500 121.7500 Du        
   3375 ****       119.2500 132.7500 122.0000 Du        
   3376 ****       119.2500 133.0000 120.7500 Du        
   3377 ****       119.2500 133.0000 121.0000 Du        
   3378 ****       119.2500 133.0000 121.2500 Du        
   3379 ****       119.2500 133.0000 121.5000 Du        
   3380 ****       119.2500 133.0000 121.7500 Du        
   3381 ****       119.2500 134.2500 138.2500 Du        
   3382 ****       119.2500 134.2500 138.7500 Du        
   3383 ****       119.2500 134.2500 139.0000 Du        
   3384 ****       119.2500 134.2500 139.2500 Du        
   3385 ****       119.2500 134.2500 170.0000 Du        
   3386 ****       119.2500 134.5000 138.2500 Du        
   3387 ****       119.2500 134.5000 138.5000 Du        
   3388 ****       119.2500 134.5000 138.7500 Du        
   3389 ****       119.2500 134.5000 139.0000 Du        
   3390 ****       119.2500 134.5000 139.2500 Du        
   3391 ****       119.2500 134.5000 170.0000 Du        
   3392 ****       119.2500 134.7500 138.2500 Du        
   3393 ****       119.2500 134.7500 138.5000 Du        
   3394 ****       119.2500 134.7500 138.7500 Du        
   3395 ****       119.2500 134.7500 139.0000 Du        
   3396 ****       119.2500 134.7500 139.2500 Du        
   3397 ****       119.2500 134.7500 170.0000 Du        
   3398 ****       119.2500 137.5000 158.5000 Du        
   3399 ****       119.2500 141.2500 159.0000 Du        
   3400 ****       119.2500 141.5000 139.2500 Du        
   3401 ****       119.2500 141.5000 158.7500 Du        
   3402 ****       119.2500 141.5000 159.0000 Du        
   3403 ****       119.2500 141.7500 138.5000 Du        
   3404 ****       119.2500 141.7500 138.7500 Du        
   3405 ****       119.2500 141.7500 139.0000 Du        
   3406 ****       119.2500 141.7500 139.2500 Du        
   3407 ****       119.2500 141.7500 158.7500 Du        
   3408 ****       119.2500 141.7500 159.0000 Du        
   3409 ****       119.2500 141.7500 159.2500 Du        
   3410 ****       119.2500 142.0000 138.2500 Du        
   3411 ****       119.2500 142.0000 138.5000 Du        
   3412 ****       119.2500 142.0000 138.7500 Du        
   3413 ****       119.2500 142.0000 139.0000 Du        
   3414 ****       119.2500 142.0000 139.2500 Du        
   3415 ****       119.2500 142.0000 159.2500 Du        
   3416 ****       119.2500 142.0000 159.5000 Du        
   3417 ****       119.2500 142.2500 138.2500 Du        
   3418 ****       119.2500 142.2500 138.5000 Du        
   3419 ****       119.2500 142.2500 138.7500 Du        
   3420 ****       119.2500 142.2500 139.0000 Du        
   3421 ****       119.2500 142.2500 139.2500 Du        
   3422 ****       119.2500 142.5000 138.2500 Du        
   3423 ****       119.2500 142.5000 138.5000 Du        
   3424 ****       119.2500 142.5000 138.7500 Du        
   3425 ****       119.2500 142.5000 139.0000 Du        
   3426 ****       119.2500 142.5000 139.2500 Du        
   3427 ****       119.2500 142.7500 138.2500 Du        
   3428 ****       119.2500 142.7500 138.5000 Du        
   3429 ****       119.2500 142.7500 138.7500 Du        
   3430 ****       119.2500 142.7500 139.0000 Du        
   3431 ****       119.2500 142.7500 139.2500 Du        
   3432 ****       119.2500 143.0000 138.2500 Du        
   3433 ****       119.2500 143.0000 138.5000 Du        
   3434 ****       119.2500 143.0000 138.7500 Du        
   3435 ****       119.2500 143.0000 139.0000 Du        
   3436 ****       119.2500 143.0000 161.0000 Du        
   3437 ****       119.2500 143.0000 161.2500 Du        
   3438 ****       119.2500 143.2500 138.2500 Du        
   3439 ****       119.2500 143.2500 138.5000 Du        
   3440 ****       119.2500 143.2500 138.7500 Du        
   3441 ****       119.2500 143.2500 139.0000 Du        
   3442 ****       119.2500 143.2500 161.2500 Du        
   3443 ****       119.2500 143.2500 161.5000 Du        
   3444 ****       119.2500 143.2500 161.7500 Du        
   3445 ****       119.2500 143.5000 161.5000 Du        
   3446 ****       119.2500 143.5000 161.7500 Du        
   3447 ****       119.2500 143.5000 162.0000 Du        
   3448 ****       119.2500 143.7500 162.0000 Du        
   3449 ****       119.2500 143.7500 162.2500 Du        
   3450 ****       119.2500 144.0000 128.2500 Du        
   3451 ****       119.2500 144.2500 128.2500 Du        
   3452 ****       119.2500 144.2500 128.5000 Du        
   3453 ****       119.2500 148.7500 108.0000 Du        
   3454 ****       119.2500 148.7500 108.2500 Du        
   3455 ****       119.2500 148.7500 108.5000 Du        
   3456 ****       119.2500 149.0000 108.0000 Du        
   3457 ****       119.2500 149.0000 108.2500 Du        
   3458 ****       119.2500 149.0000 108.5000 Du        
   3459 ****       119.2500 149.0000 108.7500 Du        
   3460 ****       119.2500 149.0000 109.0000 Du        
   3461 ****       119.2500 149.2500 108.0000 Du        
   3462 ****       119.2500 149.2500 108.2500 Du        
   3463 ****       119.2500 149.2500 108.5000 Du        
   3464 ****       119.2500 149.2500 108.7500 Du        
   3465 ****       119.2500 149.2500 109.0000 Du        
   3466 ****       119.2500 153.0000 154.5000 Du        
   3467 ****       119.2500 153.2500 154.5000 Du        
   3468 ****       119.2500 153.2500 154.7500 Du        
   3469 ****       119.2500 154.0000  91.0000 Du        
   3470 ****       119.2500 154.0000  96.0000 Du        
   3471 ****       119.2500 154.0000  96.2500 Du        
   3472 ****       119.2500 154.0000  96.5000 Du        
   3473 ****       119.2500 154.2500  91.0000 Du        
   3474 ****       119.2500 154.2500  96.0000 Du        
   3475 ****       119.2500 154.2500  96.2500 Du        
   3476 ****       119.2500 154.2500  96.5000 Du        
   3477 ****       119.2500 154.2500  96.7500 Du        
   3478 ****       119.2500 164.0000 166.0000 Du        
   3479 ****       119.2500 164.0000 166.2500 Du        
   3480 ****       119.2500 164.0000 166.5000 Du        
   3481 ****       119.2500 164.2500 166.2500 Du        
   3482 ****       119.2500 164.2500 166.5000 Du        
   3483 ****       119.5000 126.0000 118.5000 Du        
   3484 ****       119.5000 126.5000 104.7500 Du        
   3485 ****       119.5000 126.5000 105.0000 Du        
   3486 ****       119.5000 126.5000 105.2500 Du        
   3487 ****       119.5000 126.5000 105.5000 Du        
   3488 ****       119.5000 126.7500 104.5000 Du        
   3489 ****       119.5000 126.7500 104.7500 Du        
   3490 ****       119.5000 126.7500 105.0000 Du        
   3491 ****       119.5000 126.7500 105.2500 Du        
   3492 ****       119.5000 126.7500 105.5000 Du        
   3493 ****       119.5000 127.0000 104.0000 Du        
   3494 ****       119.5000 127.0000 104.2500 Du        
   3495 ****       119.5000 127.0000 104.5000 Du        
   3496 ****       119.5000 127.0000 104.7500 Du        
   3497 ****       119.5000 127.0000 105.0000 Du        
   3498 ****       119.5000 127.0000 105.2500 Du        
   3499 ****       119.5000 127.2500  95.0000 Du        
   3500 ****       119.5000 127.2500 103.7500 Du        
   3501 ****       119.5000 127.2500 104.0000 Du        
   3502 ****       119.5000 127.2500 104.2500 Du        
   3503 ****       119.5000 127.2500 104.5000 Du        
   3504 ****       119.5000 127.2500 104.7500 Du        
   3505 ****       119.5000 127.2500 105.0000 Du        
   3506 ****       119.5000 127.2500 105.2500 Du        
   3507 ****       119.5000 127.5000 103.7500 Du        
   3508 ****       119.5000 127.5000 104.0000 Du        
   3509 ****       119.5000 127.5000 104.2500 Du        
   3510 ****       119.5000 127.5000 104.5000 Du        
   3511 ****       119.5000 127.5000 104.7500 Du        
   3512 ****       119.5000 127.5000 105.0000 Du        
   3513 ****       119.5000 127.5000 105.2500 Du        
   3514 ****       119.5000 127.7500 103.7500 Du        
   3515 ****       119.5000 127.7500 104.0000 Du        
   3516 ****       119.5000 127.7500 104.2500 Du        
   3517 ****       119.5000 127.7500 104.5000 Du        
   3518 ****       119.5000 127.7500 104.7500 Du        
   3519 ****       119.5000 127.7500 105.0000 Du        
   3520 ****       119.5000 128.0000 104.0000 Du        
   3521 ****       119.5000 128.0000 104.2500 Du        
   3522 ****       119.5000 128.0000 104.5000 Du        
   3523 ****       119.5000 128.0000 104.7500 Du        
   3524 ****       119.5000 128.0000 105.0000 Du        
   3525 ****       119.5000 128.2500 104.2500 Du        
   3526 ****       119.5000 128.2500 104.5000 Du        
   3527 ****       119.5000 128.2500 104.7500 Du        
   3528 ****       119.5000 128.5000 104.2500 Du        
   3529 ****       119.5000 128.5000 104.5000 Du        
   3530 ****       119.5000 131.5000 121.0000 Du        
   3531 ****       119.5000 131.5000 121.2500 Du        
   3532 ****       119.5000 131.7500 120.7500 Du        
   3533 ****       119.5000 131.7500 121.0000 Du        
   3534 ****       119.5000 131.7500 121.2500 Du        
   3535 ****       119.5000 131.7500 121.5000 Du        
   3536 ****       119.5000 131.7500 121.7500 Du        
   3537 ****       119.5000 132.0000 120.7500 Du        
   3538 ****       119.5000 132.0000 121.0000 Du        
   3539 ****       119.5000 132.0000 121.2500 Du        
   3540 ****       119.5000 132.0000 121.5000 Du        
   3541 ****       119.5000 132.0000 121.7500 Du        
   3542 ****       119.5000 132.0000 122.0000 Du        
   3543 ****       119.5000 132.2500 120.5000 Du        
   3544 ****       119.5000 132.2500 120.7500 Du        
   3545 ****       119.5000 132.2500 121.0000 Du        
   3546 ****       119.5000 132.2500 121.2500 Du        
   3547 ****       119.5000 132.2500 121.5000 Du        
   3548 ****       119.5000 132.2500 121.7500 Du        
   3549 ****       119.5000 132.2500 122.0000 Du        
   3550 ****       119.5000 132.5000 120.5000 Du        
   3551 ****       119.5000 132.5000 120.7500 Du        
   3552 ****       119.5000 132.5000 121.0000 Du        
   3553 ****       119.5000 132.5000 121.2500 Du        
   3554 ****       119.5000 132.5000 121.5000 Du        
   3555 ****       119.5000 132.5000 121.7500 Du        
   3556 ****       119.5000 132.5000 122.0000 Du        
   3557 ****       119.5000 132.7500 120.5000 Du        
   3558 ****       119.5000 132.7500 120.7500 Du        
   3559 ****       119.5000 132.7500 121.0000 Du        
   3560 ****       119.5000 132.7500 121.2500 Du        
   3561 ****       119.5000 132.7500 121.5000 Du        
   3562 ****       119.5000 132.7500 121.7500 Du        
   3563 ****       119.5000 133.0000 120.7500 Du        
   3564 ****       119.5000 133.0000 121.0000 Du        
   3565 ****       119.5000 133.0000 121.2500 Du        
   3566 ****       119.5000 133.0000 121.5000 Du        
   3567 ****       119.5000 133.0000 121.7500 Du        
   3568 ****       119.5000 134.0000 138.7500 Du        
   3569 ****       119.5000 134.0000 139.0000 Du        
   3570 ****       119.5000 134.2500 138.0000 Du        
   3571 ****       119.5000 134.2500 138.2500 Du        
   3572 ****       119.5000 134.2500 138.5000 Du        
   3573 ****       119.5000 134.2500 138.7500 Du        
   3574 ****       119.5000 134.2500 139.0000 Du        
   3575 ****       119.5000 134.2500 139.2500 Du        
   3576 ****       119.5000 134.5000 138.0000 Du        
   3577 ****       119.5000 134.5000 138.2500 Du        
   3578 ****       119.5000 134.5000 138.5000 Du        
   3579 ****       119.5000 134.5000 138.7500 Du        
   3580 ****       119.5000 134.5000 139.0000 Du        
   3581 ****       119.5000 134.5000 139.2500 Du        
   3582 ****       119.5000 134.7500 138.0000 Du        
   3583 ****       119.5000 134.7500 138.2500 Du        
   3584 ****       119.5000 134.7500 138.5000 Du        
   3585 ****       119.5000 134.7500 138.7500 Du        
   3586 ****       119.5000 141.7500 138.7500 Du        
   3587 ****       119.5000 141.7500 139.0000 Du        
   3588 ****       119.5000 141.7500 139.2500 Du        
   3589 ****       119.5000 141.7500 158.5000 Du        
   3590 ****       119.5000 141.7500 158.7500 Du        
   3591 ****       119.5000 141.7500 159.0000 Du        
   3592 ****       119.5000 142.0000 138.0000 Du        
   3593 ****       119.5000 142.0000 138.2500 Du        
   3594 ****       119.5000 142.0000 138.5000 Du        
   3595 ****       119.5000 142.0000 138.7500 Du        
   3596 ****       119.5000 142.0000 139.0000 Du        
   3597 ****       119.5000 142.0000 139.2500 Du        
   3598 ****       119.5000 142.0000 139.5000 Du        
   3599 ****       119.5000 142.0000 158.5000 Du        
   3600 ****       119.5000 142.0000 158.7500 Du        
   3601 ****       119.5000 142.0000 159.0000 Du        
   3602 ****       119.5000 142.0000 159.2500 Du        
   3603 ****       119.5000 142.0000 159.5000 Du        
   3604 ****       119.5000 142.2500 138.0000 Du        
   3605 ****       119.5000 142.2500 138.2500 Du        
   3606 ****       119.5000 142.2500 138.5000 Du        
   3607 ****       119.5000 142.2500 138.7500 Du        
   3608 ****       119.5000 142.2500 139.0000 Du        
   3609 ****       119.5000 142.2500 139.2500 Du        
   3610 ****       119.5000 142.2500 139.5000 Du        
   3611 ****       119.5000 142.5000 138.0000 Du        
   3612 ****       119.5000 142.5000 138.2500 Du        
   3613 ****       119.5000 142.5000 138.5000 Du        
   3614 ****       119.5000 142.5000 138.7500 Du        
   3615 ****       119.5000 142.5000 139.0000 Du        
   3616 ****       119.5000 142.5000 139.2500 Du        
   3617 ****       119.5000 142.5000 139.5000 Du        
   3618 ****       119.5000 142.7500 138.0000 Du        
   3619 ****       119.5000 142.7500 138.2500 Du        
   3620 ****       119.5000 142.7500 138.5000 Du        
   3621 ****       119.5000 142.7500 138.7500 Du        
   3622 ****       119.5000 142.7500 139.0000 Du        
   3623 ****       119.5000 142.7500 139.2500 Du        
   3624 ****       119.5000 142.7500 160.5000 Du        
   3625 ****       119.5000 142.7500 160.7500 Du        
   3626 ****       119.5000 143.0000 138.0000 Du        
   3627 ****       119.5000 143.0000 138.2500 Du        
   3628 ****       119.5000 143.0000 138.5000 Du        
   3629 ****       119.5000 143.0000 138.7500 Du        
   3630 ****       119.5000 143.0000 139.0000 Du        
   3631 ****       119.5000 143.0000 139.2500 Du        
   3632 ****       119.5000 143.0000 160.7500 Du        
   3633 ****       119.5000 143.0000 161.0000 Du        
   3634 ****       119.5000 143.0000 161.2500 Du        
   3635 ****       119.5000 143.2500 138.0000 Du        
   3636 ****       119.5000 143.2500 138.2500 Du        
   3637 ****       119.5000 143.2500 138.5000 Du        
   3638 ****       119.5000 143.2500 138.7500 Du        
   3639 ****       119.5000 143.2500 139.0000 Du        
   3640 ****       119.5000 143.2500 139.2500 Du        
   3641 ****       119.5000 143.2500 161.0000 Du        
   3642 ****       119.5000 143.2500 161.2500 Du        
   3643 ****       119.5000 143.2500 161.5000 Du        
   3644 ****       119.5000 143.2500 161.7500 Du        
   3645 ****       119.5000 143.5000 138.2500 Du        
   3646 ****       119.5000 143.5000 161.2500 Du        
   3647 ****       119.5000 143.5000 161.5000 Du        
   3648 ****       119.5000 143.5000 161.7500 Du        
   3649 ****       119.5000 143.7500 138.2500 Du        
   3650 ****       119.5000 144.2500 128.2500 Du        
   3651 ****       119.5000 144.2500 128.5000 Du        
   3652 ****       119.5000 148.7500 108.0000 Du        
   3653 ****       119.5000 148.7500 108.2500 Du        
   3654 ****       119.5000 148.7500 108.5000 Du        
   3655 ****       119.5000 148.7500 108.7500 Du        
   3656 ****       119.5000 149.0000 108.0000 Du        
   3657 ****       119.5000 149.0000 108.2500 Du        
   3658 ****       119.5000 149.0000 108.5000 Du        
   3659 ****       119.5000 149.0000 108.7500 Du        
   3660 ****       119.5000 149.0000 109.0000 Du        
   3661 ****       119.5000 149.2500 108.0000 Du        
   3662 ****       119.5000 149.2500 108.2500 Du        
   3663 ****       119.5000 149.2500 108.5000 Du        
   3664 ****       119.5000 149.2500 108.7500 Du        
   3665 ****       119.5000 149.2500 109.0000 Du        
   3666 ****       119.5000 149.2500 109.2500 Du        
   3667 ****       119.5000 149.5000 108.2500 Du        
   3668 ****       119.5000 149.5000 108.5000 Du        
   3669 ****       119.5000 149.5000 108.7500 Du        
   3670 ****       119.5000 153.0000 154.5000 Du        
   3671 ****       119.5000 154.0000  90.7500 Du        
   3672 ****       119.5000 154.0000  91.0000 Du        
   3673 ****       119.5000 154.0000  96.0000 Du        
   3674 ****       119.5000 154.0000  96.2500 Du        
   3675 ****       119.5000 154.0000  96.5000 Du        
   3676 ****       119.5000 154.2500  90.5000 Du        
   3677 ****       119.5000 154.2500  90.7500 Du        
   3678 ****       119.5000 154.2500  91.0000 Du        
   3679 ****       119.5000 154.2500  96.0000 Du        
   3680 ****       119.5000 154.2500  96.2500 Du        
   3681 ****       119.5000 154.2500  96.5000 Du        
   3682 ****       119.5000 154.2500  96.7500 Du        
   3683 ****       119.5000 164.0000 165.5000 Du        
   3684 ****       119.5000 164.0000 165.7500 Du        
   3685 ****       119.5000 164.0000 166.0000 Du        
   3686 ****       119.5000 164.0000 166.2500 Du        
   3687 ****       119.5000 164.2500 165.2500 Du        
   3688 ****       119.5000 164.2500 165.5000 Du        
   3689 ****       119.5000 164.2500 165.7500 Du        
   3690 ****       119.5000 164.2500 166.0000 Du        
   3691 ****       119.5000 164.2500 166.2500 Du        
   3692 ****       119.5000 164.2500 166.5000 Du        
   3693 ****       119.7500 122.0000 164.7500 Du        
   3694 ****       119.7500 126.5000 104.7500 Du        
   3695 ****       119.7500 126.5000 105.0000 Du        
   3696 ****       119.7500 126.5000 105.2500 Du        
   3697 ****       119.7500 126.5000 105.5000 Du        
   3698 ****       119.7500 126.7500 104.0000 Du        
   3699 ****       119.7500 126.7500 104.2500 Du        
   3700 ****       119.7500 126.7500 104.5000 Du        
   3701 ****       119.7500 126.7500 104.7500 Du        
   3702 ****       119.7500 126.7500 105.0000 Du        
   3703 ****       119.7500 126.7500 105.2500 Du        
   3704 ****       119.7500 127.0000  95.5000 Du        
   3705 ****       119.7500 127.0000 104.0000 Du        
   3706 ****       119.7500 127.0000 104.2500 Du        
   3707 ****       119.7500 127.0000 104.5000 Du        
   3708 ****       119.7500 127.0000 104.7500 Du        
   3709 ****       119.7500 127.0000 105.0000 Du        
   3710 ****       119.7500 127.0000 105.2500 Du        
   3711 ****       119.7500 127.2500  95.0000 Du        
   3712 ****       119.7500 127.2500  95.2500 Du        
   3713 ****       119.7500 127.2500  95.5000 Du        
   3714 ****       119.7500 127.2500 104.0000 Du        
   3715 ****       119.7500 127.2500 104.2500 Du        
   3716 ****       119.7500 127.2500 104.5000 Du        
   3717 ****       119.7500 127.2500 104.7500 Du        
   3718 ****       119.7500 127.2500 105.0000 Du        
   3719 ****       119.7500 127.2500 105.2500 Du        
   3720 ****       119.7500 127.5000  97.2500 Du        
   3721 ****       119.7500 127.5000  97.5000 Du        
   3722 ****       119.7500 127.5000 103.7500 Du        
   3723 ****       119.7500 127.5000 104.0000 Du        
   3724 ****       119.7500 127.5000 104.2500 Du        
   3725 ****       119.7500 127.5000 104.5000 Du        
   3726 ****       119.7500 127.5000 104.7500 Du        
   3727 ****       119.7500 127.5000 105.0000 Du        
   3728 ****       119.7500 127.5000 105.2500 Du        
   3729 ****       119.7500 127.7500 104.0000 Du        
   3730 ****       119.7500 127.7500 104.2500 Du        
   3731 ****       119.7500 127.7500 104.5000 Du        
   3732 ****       119.7500 127.7500 104.7500 Du        
   3733 ****       119.7500 127.7500 105.0000 Du        
   3734 ****       119.7500 128.0000 104.0000 Du        
   3735 ****       119.7500 128.0000 104.2500 Du        
   3736 ****       119.7500 128.0000 104.5000 Du        
   3737 ****       119.7500 128.0000 104.7500 Du        
   3738 ****       119.7500 128.0000 105.0000 Du        
   3739 ****       119.7500 128.2500 104.2500 Du        
   3740 ****       119.7500 128.2500 104.5000 Du        
   3741 ****       119.7500 128.2500 104.7500 Du        
   3742 ****       119.7500 131.7500 121.2500 Du        
   3743 ****       119.7500 131.7500 121.5000 Du        
   3744 ****       119.7500 132.0000 121.0000 Du        
   3745 ****       119.7500 132.0000 121.2500 Du        
   3746 ****       119.7500 132.0000 121.5000 Du        
   3747 ****       119.7500 132.0000 121.7500 Du        
   3748 ****       119.7500 132.2500 120.7500 Du        
   3749 ****       119.7500 132.2500 121.0000 Du        
   3750 ****       119.7500 132.2500 121.2500 Du        
   3751 ****       119.7500 132.2500 121.5000 Du        
   3752 ****       119.7500 132.2500 121.7500 Du        
   3753 ****       119.7500 132.5000 120.7500 Du        
   3754 ****       119.7500 132.5000 121.0000 Du        
   3755 ****       119.7500 132.5000 121.2500 Du        
   3756 ****       119.7500 132.5000 121.5000 Du        
   3757 ****       119.7500 132.5000 121.7500 Du        
   3758 ****       119.7500 132.7500 120.7500 Du        
   3759 ****       119.7500 132.7500 121.0000 Du        
   3760 ****       119.7500 132.7500 121.2500 Du        
   3761 ****       119.7500 132.7500 121.5000 Du        
   3762 ****       119.7500 132.7500 121.7500 Du        
   3763 ****       119.7500 133.0000 120.7500 Du        
   3764 ****       119.7500 133.0000 121.0000 Du        
   3765 ****       119.7500 133.0000 121.2500 Du        
   3766 ****       119.7500 133.0000 121.5000 Du        
   3767 ****       119.7500 133.2500 121.0000 Du        
   3768 ****       119.7500 133.2500 121.2500 Du        
   3769 ****       119.7500 134.0000 138.2500 Du        
   3770 ****       119.7500 134.0000 138.5000 Du        
   3771 ****       119.7500 134.0000 138.7500 Du        
   3772 ****       119.7500 134.0000 139.0000 Du        
   3773 ****       119.7500 134.0000 139.2500 Du        
   3774 ****       119.7500 134.2500 138.0000 Du        
   3775 ****       119.7500 134.2500 138.2500 Du        
   3776 ****       119.7500 134.2500 138.5000 Du        
   3777 ****       119.7500 134.2500 138.7500 Du        
   3778 ****       119.7500 134.2500 139.0000 Du        
   3779 ****       119.7500 134.2500 139.2500 Du        
   3780 ****       119.7500 134.5000 137.7500 Du        
   3781 ****       119.7500 134.5000 138.0000 Du        
   3782 ****       119.7500 134.5000 138.2500 Du        
   3783 ****       119.7500 134.5000 138.5000 Du        
   3784 ****       119.7500 134.5000 138.7500 Du        
   3785 ****       119.7500 134.5000 139.0000 Du        
   3786 ****       119.7500 134.5000 139.2500 Du        
   3787 ****       119.7500 134.7500 138.0000 Du        
   3788 ****       119.7500 134.7500 138.2500 Du        
   3789 ****       119.7500 141.7500 139.0000 Du        
   3790 ****       119.7500 141.7500 139.2500 Du        
   3791 ****       119.7500 142.0000 138.2500 Du        
   3792 ****       119.7500 142.0000 138.5000 Du        
   3793 ****       119.7500 142.0000 138.7500 Du        
   3794 ****       119.7500 142.0000 139.0000 Du        
   3795 ****       119.7500 142.0000 139.2500 Du        
   3796 ****       119.7500 142.0000 158.5000 Du        
   3797 ****       119.7500 142.0000 158.7500 Du        
   3798 ****       119.7500 142.0000 159.0000 Du        
   3799 ****       119.7500 142.0000 159.2500 Du        
   3800 ****       119.7500 142.2500 138.0000 Du        
   3801 ****       119.7500 142.2500 138.2500 Du        
   3802 ****       119.7500 142.2500 138.5000 Du        
   3803 ****       119.7500 142.2500 138.7500 Du        
   3804 ****       119.7500 142.2500 139.0000 Du        
   3805 ****       119.7500 142.2500 139.2500 Du        
   3806 ****       119.7500 142.2500 139.5000 Du        
   3807 ****       119.7500 142.2500 158.5000 Du        
   3808 ****       119.7500 142.2500 158.7500 Du        
   3809 ****       119.7500 142.2500 159.0000 Du        
   3810 ****       119.7500 142.2500 159.2500 Du        
   3811 ****       119.7500 142.2500 159.5000 Du        
   3812 ****       119.7500 142.2500 159.7500 Du        
   3813 ****       119.7500 142.5000 138.0000 Du        
   3814 ****       119.7500 142.5000 138.2500 Du        
   3815 ****       119.7500 142.5000 138.5000 Du        
   3816 ****       119.7500 142.5000 138.7500 Du        
   3817 ****       119.7500 142.5000 139.0000 Du        
   3818 ****       119.7500 142.5000 139.2500 Du        
   3819 ****       119.7500 142.5000 139.5000 Du        
   3820 ****       119.7500 142.5000 159.5000 Du        
   3821 ****       119.7500 142.5000 159.7500 Du        
   3822 ****       119.7500 142.5000 160.0000 Du        
   3823 ****       119.7500 142.5000 160.2500 Du        
   3824 ****       119.7500 142.7500 138.0000 Du        
   3825 ****       119.7500 142.7500 138.2500 Du        
   3826 ****       119.7500 142.7500 138.5000 Du        
   3827 ****       119.7500 142.7500 138.7500 Du        
   3828 ****       119.7500 142.7500 139.0000 Du        
   3829 ****       119.7500 142.7500 139.2500 Du        
   3830 ****       119.7500 142.7500 160.0000 Du        
   3831 ****       119.7500 142.7500 160.2500 Du        
   3832 ****       119.7500 142.7500 160.5000 Du        
   3833 ****       119.7500 142.7500 160.7500 Du        
   3834 ****       119.7500 143.0000 138.0000 Du        
   3835 ****       119.7500 143.0000 138.2500 Du        
   3836 ****       119.7500 143.0000 138.5000 Du        
   3837 ****       119.7500 143.0000 138.7500 Du        
   3838 ****       119.7500 143.0000 139.0000 Du        
   3839 ****       119.7500 143.0000 139.2500 Du        
   3840 ****       119.7500 143.0000 160.2500 Du        
   3841 ****       119.7500 143.0000 160.5000 Du        
   3842 ****       119.7500 143.0000 160.7500 Du        
   3843 ****       119.7500 143.0000 161.0000 Du        
   3844 ****       119.7500 143.0000 161.2500 Du        
   3845 ****       119.7500 143.2500 138.0000 Du        
   3846 ****       119.7500 143.2500 138.2500 Du        
   3847 ****       119.7500 143.2500 138.5000 Du        
   3848 ****       119.7500 143.2500 138.7500 Du        
   3849 ****       119.7500 143.2500 139.0000 Du        
   3850 ****       119.7500 143.2500 139.2500 Du        
   3851 ****       119.7500 143.2500 160.7500 Du        
   3852 ****       119.7500 143.2500 161.0000 Du        
   3853 ****       119.7500 143.2500 161.2500 Du        
   3854 ****       119.7500 143.2500 161.5000 Du        
   3855 ****       119.7500 143.5000 138.2500 Du        
   3856 ****       119.7500 143.5000 138.7500 Du        
   3857 ****       119.7500 143.5000 161.0000 Du        
   3858 ****       119.7500 143.5000 161.2500 Du        
   3859 ****       119.7500 143.5000 161.5000 Du        
   3860 ****       119.7500 143.7500 138.2500 Du        
   3861 ****       119.7500 144.2500 128.2500 Du        
   3862 ****       119.7500 146.7500 113.0000 Du        
   3863 ****       119.7500 147.0000 113.0000 Du        
   3864 ****       119.7500 147.2500 113.0000 Du        
   3865 ****       119.7500 148.7500 108.0000 Du        
   3866 ****       119.7500 148.7500 108.2500 Du        
   3867 ****       119.7500 148.7500 108.5000 Du        
   3868 ****       119.7500 148.7500 108.7500 Du        
   3869 ****       119.7500 148.7500 109.0000 Du        
   3870 ****       119.7500 149.0000 108.0000 Du        
   3871 ****       119.7500 149.0000 108.2500 Du        
   3872 ****       119.7500 149.0000 108.5000 Du        
   3873 ****       119.7500 149.0000 108.7500 Du        
   3874 ****       119.7500 149.0000 109.0000 Du        
   3875 ****       119.7500 149.0000 109.2500 Du        
   3876 ****       119.7500 149.2500 108.0000 Du        
   3877 ****       119.7500 149.2500 108.2500 Du        
   3878 ****       119.7500 149.2500 108.5000 Du        
   3879 ****       119.7500 149.2500 108.7500 Du        
   3880 ****       119.7500 149.2500 109.0000 Du        
   3881 ****       119.7500 149.2500 109.2500 Du        
   3882 ****       119.7500 149.5000 108.2500 Du        
   3883 ****       119.7500 149.5000 108.5000 Du        
   3884 ****       119.7500 149.5000 108.7500 Du        
   3885 ****       119.7500 149.5000 109.0000 Du        
   3886 ****       119.7500 149.7500 108.2500 Du        
   3887 ****       119.7500 149.7500 108.5000 Du        
   3888 ****       119.7500 149.7500 108.7500 Du        
   3889 ****       119.7500 149.7500 109.0000 Du        
   3890 ****       119.7500 150.0000 108.7500 Du        
   3891 ****       119.7500 154.0000  90.5000 Du        
   3892 ****       119.7500 154.0000  90.7500 Du        
   3893 ****       119.7500 154.0000  96.2500 Du        
   3894 ****       119.7500 154.2500  90.2500 Du        
   3895 ****       119.7500 154.2500  90.5000 Du        
   3896 ****       119.7500 154.2500  90.7500 Du        
   3897 ****       119.7500 154.2500  96.2500 Du        
   3898 ****       119.7500 154.2500  96.5000 Du        
   3899 ****       119.7500 154.2500  96.7500 Du        
   3900 ****       119.7500 154.5000  90.2500 Du        
   3901 ****       119.7500 154.5000  96.5000 Du        
   3902 ****       119.7500 154.5000  96.7500 Du        
   3903 ****       119.7500 154.7500  90.0000 Du        
   3904 ****       119.7500 154.7500  90.2500 Du        
   3905 ****       119.7500 163.7500 165.2500 Du        
   3906 ****       119.7500 163.7500 165.5000 Du        
   3907 ****       119.7500 163.7500 165.7500 Du        
   3908 ****       119.7500 163.7500 166.0000 Du        
   3909 ****       119.7500 163.7500 166.2500 Du        
   3910 ****       119.7500 164.0000 165.0000 Du        
   3911 ****       119.7500 164.0000 165.2500 Du        
   3912 ****       119.7500 164.0000 165.5000 Du        
   3913 ****       119.7500 164.0000 165.7500 Du        
   3914 ****       119.7500 164.0000 166.0000 Du        
   3915 ****       119.7500 164.0000 166.2500 Du        
   3916 ****       119.7500 164.0000 166.5000 Du        
   3917 ****       119.7500 164.0000 166.7500 Du        
   3918 ****       119.7500 164.2500 165.0000 Du        
   3919 ****       119.7500 164.2500 165.2500 Du        
   3920 ****       119.7500 164.2500 165.5000 Du        
   3921 ****       119.7500 164.2500 165.7500 Du        
   3922 ****       119.7500 164.2500 166.0000 Du        
   3923 ****       119.7500 164.2500 166.2500 Du        
   3924 ****       119.7500 164.2500 166.5000 Du        
   3925 ****       120.0000 121.7500 164.7500 Du        
   3926 ****       120.0000 122.0000 164.5000 Du        
   3927 ****       120.0000 122.0000 164.7500 Du        
   3928 ****       120.0000 122.0000 165.0000 Du        
   3929 ****       120.0000 122.2500 164.7500 Du        
   3930 ****       120.0000 126.2500 105.0000 Du        
   3931 ****       120.0000 126.2500 105.2500 Du        
   3932 ****       120.0000 126.5000 104.5000 Du        
   3933 ****       120.0000 126.5000 104.7500 Du        
   3934 ****       120.0000 126.5000 105.0000 Du        
   3935 ****       120.0000 126.5000 105.2500 Du        
   3936 ****       120.0000 126.5000 105.5000 Du        
   3937 ****       120.0000 126.7500 104.0000 Du        
   3938 ****       120.0000 126.7500 104.2500 Du        
   3939 ****       120.0000 126.7500 104.5000 Du        
   3940 ****       120.0000 126.7500 104.7500 Du        
   3941 ****       120.0000 126.7500 105.0000 Du        
   3942 ****       120.0000 126.7500 105.2500 Du        
   3943 ****       120.0000 126.7500 105.5000 Du        
   3944 ****       120.0000 127.0000  95.2500 Du        
   3945 ****       120.0000 127.0000  95.5000 Du        
   3946 ****       120.0000 127.0000  95.7500 Du        
   3947 ****       120.0000 127.0000 104.0000 Du        
   3948 ****       120.0000 127.0000 104.2500 Du        
   3949 ****       120.0000 127.0000 104.5000 Du        
   3950 ****       120.0000 127.0000 104.7500 Du        
   3951 ****       120.0000 127.0000 105.0000 Du        
   3952 ****       120.0000 127.0000 105.2500 Du        
   3953 ****       120.0000 127.2500  95.0000 Du        
   3954 ****       120.0000 127.2500  95.2500 Du        
   3955 ****       120.0000 127.2500  95.5000 Du        
   3956 ****       120.0000 127.2500  95.7500 Du        
   3957 ****       120.0000 127.2500  96.0000 Du        
   3958 ****       120.0000 127.2500  96.2500 Du        
   3959 ****       120.0000 127.2500  97.0000 Du        
   3960 ****       120.0000 127.2500  97.2500 Du        
   3961 ****       120.0000 127.2500 104.0000 Du        
   3962 ****       120.0000 127.2500 104.2500 Du        
   3963 ****       120.0000 127.2500 104.5000 Du        
   3964 ****       120.0000 127.2500 104.7500 Du        
   3965 ****       120.0000 127.2500 105.0000 Du        
   3966 ****       120.0000 127.2500 105.2500 Du        
   3967 ****       120.0000 127.5000  95.2500 Du        
   3968 ****       120.0000 127.5000  95.5000 Du        
   3969 ****       120.0000 127.5000  95.7500 Du        
   3970 ****       120.0000 127.5000  96.0000 Du        
   3971 ****       120.0000 127.5000  96.2500 Du        
   3972 ****       120.0000 127.5000  96.5000 Du        
   3973 ****       120.0000 127.5000  96.7500 Du        
   3974 ****       120.0000 127.5000  97.0000 Du        
   3975 ****       120.0000 127.5000  97.2500 Du        
   3976 ****       120.0000 127.5000  97.5000 Du        
   3977 ****       120.0000 127.5000  97.7500 Du        
   3978 ****       120.0000 127.5000 104.0000 Du        
   3979 ****       120.0000 127.5000 104.2500 Du        
   3980 ****       120.0000 127.5000 104.5000 Du        
   3981 ****       120.0000 127.5000 104.7500 Du        
   3982 ****       120.0000 127.5000 105.0000 Du        
   3983 ****       120.0000 127.7500  97.2500 Du        
   3984 ****       120.0000 127.7500  97.5000 Du        
   3985 ****       120.0000 127.7500  97.7500 Du        
   3986 ****       120.0000 127.7500 104.0000 Du        
   3987 ****       120.0000 127.7500 104.2500 Du        
   3988 ****       120.0000 127.7500 104.5000 Du        
   3989 ****       120.0000 127.7500 104.7500 Du        
   3990 ****       120.0000 127.7500 105.0000 Du        
   3991 ****       120.0000 128.0000 104.2500 Du        
   3992 ****       120.0000 128.0000 104.5000 Du        
   3993 ****       120.0000 128.0000 104.7500 Du        
   3994 ****       120.0000 128.0000 105.0000 Du        
   3995 ****       120.0000 128.2500 104.5000 Du        
   3996 ****       120.0000 132.0000 121.2500 Du        
   3997 ****       120.0000 132.2500 121.0000 Du        
   3998 ****       120.0000 132.2500 121.2500 Du        
   3999 ****       120.0000 132.2500 121.5000 Du        
   4000 ****       120.0000 132.5000 121.0000 Du        
   4001 ****       120.0000 132.5000 121.2500 Du        
   4002 ****       120.0000 132.5000 121.5000 Du        
   4003 ****       120.0000 132.7500 120.7500 Du        
   4004 ****       120.0000 132.7500 121.0000 Du        
   4005 ****       120.0000 132.7500 121.2500 Du        
   4006 ****       120.0000 132.7500 121.5000 Du        
   4007 ****       120.0000 133.0000 120.7500 Du        
   4008 ****       120.0000 133.0000 121.0000 Du        
   4009 ****       120.0000 133.0000 121.2500 Du        
   4010 ****       120.0000 133.0000 121.5000 Du        
   4011 ****       120.0000 133.2500 121.0000 Du        
   4012 ****       120.0000 133.2500 121.2500 Du        
   4013 ****       120.0000 133.7500 138.7500 Du        
   4014 ****       120.0000 133.7500 139.0000 Du        
   4015 ****       120.0000 133.7500 139.2500 Du        
   4016 ****       120.0000 134.0000 138.0000 Du        
   4017 ****       120.0000 134.0000 138.2500 Du        
   4018 ****       120.0000 134.0000 138.5000 Du        
   4019 ****       120.0000 134.0000 138.7500 Du        
   4020 ****       120.0000 134.0000 139.0000 Du        
   4021 ****       120.0000 134.0000 139.2500 Du        
   4022 ****       120.0000 134.2500 137.7500 Du        
   4023 ****       120.0000 134.2500 138.0000 Du        
   4024 ****       120.0000 134.2500 138.2500 Du        
   4025 ****       120.0000 134.2500 138.5000 Du        
   4026 ****       120.0000 134.2500 138.7500 Du        
   4027 ****       120.0000 134.2500 139.0000 Du        
   4028 ****       120.0000 134.2500 139.2500 Du        
   4029 ****       120.0000 134.5000 137.7500 Du        
   4030 ****       120.0000 134.5000 138.0000 Du        
   4031 ****       120.0000 134.5000 138.2500 Du        
   4032 ****       120.0000 134.5000 138.5000 Du        
   4033 ****       120.0000 134.5000 138.7500 Du        
   4034 ****       120.0000 134.5000 139.0000 Du        
   4035 ****       120.0000 134.7500 137.7500 Du        
   4036 ****       120.0000 134.7500 138.0000 Du        
   4037 ****       120.0000 134.7500 138.2500 Du        
   4038 ****       120.0000 142.0000 138.7500 Du        
   4039 ****       120.0000 142.0000 139.0000 Du        
   4040 ****       120.0000 142.0000 139.2500 Du        
   4041 ****       120.0000 142.2500 138.2500 Du        
   4042 ****       120.0000 142.2500 138.5000 Du        
   4043 ****       120.0000 142.2500 138.7500 Du        
   4044 ****       120.0000 142.2500 139.0000 Du        
   4045 ****       120.0000 142.2500 139.2500 Du        
   4046 ****       120.0000 142.2500 158.5000 Du        
   4047 ****       120.0000 142.2500 158.7500 Du        
   4048 ****       120.0000 142.2500 159.0000 Du        
   4049 ****       120.0000 142.2500 159.2500 Du        
   4050 ****       120.0000 142.2500 159.5000 Du        
   4051 ****       120.0000 142.5000 138.0000 Du        
   4052 ****       120.0000 142.5000 138.2500 Du        
   4053 ****       120.0000 142.5000 138.5000 Du        
   4054 ****       120.0000 142.5000 138.7500 Du        
   4055 ****       120.0000 142.5000 139.0000 Du        
   4056 ****       120.0000 142.5000 139.2500 Du        
   4057 ****       120.0000 142.5000 157.7500 Du        
   4058 ****       120.0000 142.5000 158.0000 Du        
   4059 ****       120.0000 142.5000 158.2500 Du        
   4060 ****       120.0000 142.5000 158.5000 Du        
   4061 ****       120.0000 142.5000 158.7500 Du        
   4062 ****       120.0000 142.5000 159.0000 Du        
   4063 ****       120.0000 142.5000 159.2500 Du        
   4064 ****       120.0000 142.5000 159.5000 Du        
   4065 ****       120.0000 142.5000 159.7500 Du        
   4066 ****       120.0000 142.5000 160.0000 Du        
   4067 ****       120.0000 142.7500 138.0000 Du        
   4068 ****       120.0000 142.7500 138.2500 Du        
   4069 ****       120.0000 142.7500 138.5000 Du        
   4070 ****       120.0000 142.7500 138.7500 Du        
   4071 ****       120.0000 142.7500 139.0000 Du        
   4072 ****       120.0000 142.7500 139.2500 Du        
   4073 ****       120.0000 142.7500 157.0000 Du        
   4074 ****       120.0000 142.7500 157.2500 Du        
   4075 ****       120.0000 142.7500 157.5000 Du        
   4076 ****       120.0000 142.7500 157.7500 Du        
   4077 ****       120.0000 142.7500 159.0000 Du        
   4078 ****       120.0000 142.7500 159.2500 Du        
   4079 ****       120.0000 142.7500 159.5000 Du        
   4080 ****       120.0000 142.7500 159.7500 Du        
   4081 ****       120.0000 142.7500 160.0000 Du        
   4082 ****       120.0000 142.7500 160.2500 Du        
   4083 ****       120.0000 142.7500 160.5000 Du        
   4084 ****       120.0000 142.7500 160.7500 Du        
   4085 ****       120.0000 143.0000 138.2500 Du        
   4086 ****       120.0000 143.0000 138.5000 Du        
   4087 ****       120.0000 143.0000 138.7500 Du        
   4088 ****       120.0000 143.0000 139.0000 Du        
   4089 ****       120.0000 143.0000 139.2500 Du        
   4090 ****       120.0000 143.0000 159.7500 Du        
   4091 ****       120.0000 143.0000 160.0000 Du        
   4092 ****       120.0000 143.0000 160.2500 Du        
   4093 ****       120.0000 143.0000 160.5000 Du        
   4094 ****       120.0000 143.0000 160.7500 Du        
   4095 ****       120.0000 143.0000 161.0000 Du        
   4096 ****       120.0000 143.2500 138.2500 Du        
   4097 ****       120.0000 143.2500 138.5000 Du        
   4098 ****       120.0000 143.2500 138.7500 Du        
   4099 ****       120.0000 143.2500 139.0000 Du        
   4100 ****       120.0000 143.2500 139.2500 Du        
   4101 ****       120.0000 143.2500 160.2500 Du        
   4102 ****       120.0000 143.2500 160.5000 Du        
   4103 ****       120.0000 143.2500 160.7500 Du        
   4104 ****       120.0000 143.2500 161.0000 Du        
   4105 ****       120.0000 143.2500 161.2500 Du        
   4106 ****       120.0000 143.5000 160.7500 Du        
   4107 ****       120.0000 143.5000 161.0000 Du        
   4108 ****       120.0000 143.5000 161.2500 Du        
   4109 ****       120.0000 146.5000 113.0000 Du        
   4110 ****       120.0000 146.7500 112.7500 Du        
   4111 ****       120.0000 146.7500 113.0000 Du        
   4112 ****       120.0000 146.7500 113.2500 Du        
   4113 ****       120.0000 147.0000 112.5000 Du        
   4114 ****       120.0000 147.0000 112.7500 Du        
   4115 ****       120.0000 147.0000 113.0000 Du        
   4116 ****       120.0000 147.0000 113.2500 Du        
   4117 ****       120.0000 147.2500 112.2500 Du        
   4118 ****       120.0000 147.2500 112.5000 Du        
   4119 ****       120.0000 147.2500 112.7500 Du        
   4120 ****       120.0000 147.2500 113.0000 Du        
   4121 ****       120.0000 147.2500 113.2500 Du        
   4122 ****       120.0000 147.5000 112.2500 Du        
   4123 ****       120.0000 147.7500 112.2500 Du        
   4124 ****       120.0000 148.7500 108.5000 Du        
   4125 ****       120.0000 148.7500 108.7500 Du        
   4126 ****       120.0000 148.7500 109.0000 Du        
   4127 ****       120.0000 148.7500 109.2500 Du        
   4128 ****       120.0000 149.0000 108.0000 Du        
   4129 ****       120.0000 149.0000 108.2500 Du        
   4130 ****       120.0000 149.0000 108.5000 Du        
   4131 ****       120.0000 149.0000 108.7500 Du        
   4132 ****       120.0000 149.0000 109.0000 Du        
   4133 ****       120.0000 149.0000 109.2500 Du        
   4134 ****       120.0000 149.0000 109.5000 Du        
   4135 ****       120.0000 149.2500 108.0000 Du        
   4136 ****       120.0000 149.2500 108.2500 Du        
   4137 ****       120.0000 149.2500 108.5000 Du        
   4138 ****       120.0000 149.2500 108.7500 Du        
   4139 ****       120.0000 149.2500 109.0000 Du        
   4140 ****       120.0000 149.2500 109.2500 Du        
   4141 ****       120.0000 149.2500 109.5000 Du        
   4142 ****       120.0000 149.2500 109.7500 Du        
   4143 ****       120.0000 149.5000 108.2500 Du        
   4144 ****       120.0000 149.5000 108.5000 Du        
   4145 ****       120.0000 149.5000 108.7500 Du        
   4146 ****       120.0000 149.5000 109.0000 Du        
   4147 ****       120.0000 149.5000 109.2500 Du        
   4148 ****       120.0000 149.7500 108.2500 Du        
   4149 ****       120.0000 149.7500 108.5000 Du        
   4150 ****       120.0000 149.7500 108.7500 Du        
   4151 ****       120.0000 149.7500 109.0000 Du        
   4152 ****       120.0000 149.7500 109.2500 Du        
   4153 ****       120.0000 150.0000 108.2500 Du        
   4154 ****       120.0000 150.0000 108.5000 Du        
   4155 ****       120.0000 150.0000 108.7500 Du        
   4156 ****       120.0000 150.0000 109.0000 Du        
   4157 ****       120.0000 154.0000  90.5000 Du        
   4158 ****       120.0000 154.2500  90.0000 Du        
   4159 ****       120.0000 154.2500  90.2500 Du        
   4160 ****       120.0000 154.2500  90.5000 Du        
   4161 ****       120.0000 154.2500  90.7500 Du        
   4162 ****       120.0000 154.5000  90.0000 Du        
   4163 ****       120.0000 154.5000  90.2500 Du        
   4164 ****       120.0000 154.5000  90.5000 Du        
   4165 ****       120.0000 154.5000  96.7500 Du        
   4166 ****       120.0000 154.7500  89.5000 Du        
   4167 ****       120.0000 154.7500  89.7500 Du        
   4168 ****       120.0000 154.7500  90.0000 Du        
   4169 ****       120.0000 154.7500  90.2500 Du        
   4170 ****       120.0000 154.7500  90.5000 Du        
   4171 ****       120.0000 154.7500  90.7500 Du        
   4172 ****       120.0000 154.7500  96.7500 Du        
   4173 ****       120.0000 154.7500  97.0000 Du        
   4174 ****       120.0000 155.0000  89.5000 Du        
   4175 ****       120.0000 155.0000  89.7500 Du        
   4176 ****       120.0000 155.0000  90.0000 Du        
   4177 ****       120.0000 155.0000  90.2500 Du        
   4178 ****       120.0000 155.0000  90.5000 Du        
   4179 ****       120.0000 155.0000  97.2500 Du        
   4180 ****       120.0000 155.0000  97.5000 Du        
   4181 ****       120.0000 155.2500  97.5000 Du        
   4182 ****       120.0000 163.5000 165.5000 Du        
   4183 ****       120.0000 163.5000 165.7500 Du        
   4184 ****       120.0000 163.5000 166.0000 Du        
   4185 ****       120.0000 163.7500 165.0000 Du        
   4186 ****       120.0000 163.7500 165.2500 Du        
   4187 ****       120.0000 163.7500 165.5000 Du        
   4188 ****       120.0000 163.7500 165.7500 Du        
   4189 ****       120.0000 163.7500 166.0000 Du        
   4190 ****       120.0000 163.7500 166.2500 Du        
   4191 ****       120.0000 163.7500 166.5000 Du        
   4192 ****       120.0000 163.7500 166.7500 Du        
   4193 ****       120.0000 164.0000 164.7500 Du        
   4194 ****       120.0000 164.0000 165.0000 Du        
   4195 ****       120.0000 164.0000 165.2500 Du        
   4196 ****       120.0000 164.0000 165.5000 Du        
   4197 ****       120.0000 164.0000 165.7500 Du        
   4198 ****       120.0000 164.0000 166.0000 Du        
   4199 ****       120.0000 164.0000 166.2500 Du        
   4200 ****       120.0000 164.0000 166.5000 Du        
   4201 ****       120.0000 164.0000 166.7500 Du        
   4202 ****       120.0000 164.0000 167.0000 Du        
   4203 ****       120.0000 164.2500 164.7500 Du        
   4204 ****       120.0000 164.2500 165.0000 Du        
   4205 ****       120.0000 164.2500 165.2500 Du        
   4206 ****       120.0000 164.2500 165.5000 Du        
   4207 ****       120.0000 164.2500 165.7500 Du        
   4208 ****       120.0000 164.2500 166.0000 Du        
   4209 ****       120.0000 164.2500 166.2500 Du        
   4210 ****       120.0000 164.2500 166.5000 Du        
   4211 ****       120.0000 164.2500 166.7500 Du        
   4212 ****       120.0000 164.2500 167.0000 Du        
   4213 ****       120.0000 164.5000 166.0000 Du        
   4214 ****       120.0000 164.5000 166.2500 Du        
   4215 ****       120.0000 164.5000 166.5000 Du        
   4216 ****       120.0000 164.5000 166.7500 Du        
   4217 ****       120.0000 164.5000 167.0000 Du        
   4218 ****       120.2500 121.2500 164.7500 Du        
   4219 ****       120.2500 121.5000 164.7500 Du        
   4220 ****       120.2500 121.5000 165.0000 Du        
   4221 ****       120.2500 121.7500 164.7500 Du        
   4222 ****       120.2500 121.7500 165.0000 Du        
   4223 ****       120.2500 122.0000 164.5000 Du        
   4224 ****       120.2500 122.0000 164.7500 Du        
   4225 ****       120.2500 122.0000 165.0000 Du        
   4226 ****       120.2500 126.0000 105.2500 Du        
   4227 ****       120.2500 126.2500 104.7500 Du        
   4228 ****       120.2500 126.2500 105.0000 Du        
   4229 ****       120.2500 126.2500 105.2500 Du        
   4230 ****       120.2500 126.2500 105.5000 Du        
   4231 ****       120.2500 126.5000 104.2500 Du        
   4232 ****       120.2500 126.5000 104.5000 Du        
   4233 ****       120.2500 126.5000 104.7500 Du        
   4234 ****       120.2500 126.5000 105.0000 Du        
   4235 ****       120.2500 126.5000 105.2500 Du        
   4236 ****       120.2500 126.5000 105.5000 Du        
   4237 ****       120.2500 126.7500 104.0000 Du        
   4238 ****       120.2500 126.7500 104.2500 Du        
   4239 ****       120.2500 126.7500 104.5000 Du        
   4240 ****       120.2500 126.7500 104.7500 Du        
   4241 ****       120.2500 126.7500 105.0000 Du        
   4242 ****       120.2500 126.7500 105.2500 Du        
   4243 ****       120.2500 126.7500 105.5000 Du        
   4244 ****       120.2500 127.0000  95.5000 Du        
   4245 ****       120.2500 127.0000  95.7500 Du        
   4246 ****       120.2500 127.0000  96.0000 Du        
   4247 ****       120.2500 127.0000  97.0000 Du        
   4248 ****       120.2500 127.0000  97.2500 Du        
   4249 ****       120.2500 127.0000 104.0000 Du        
   4250 ****       120.2500 127.0000 104.2500 Du        
   4251 ****       120.2500 127.0000 104.5000 Du        
   4252 ****       120.2500 127.0000 104.7500 Du        
   4253 ****       120.2500 127.0000 105.0000 Du        
   4254 ****       120.2500 127.0000 105.2500 Du        
   4255 ****       120.2500 127.2500  95.2500 Du        
   4256 ****       120.2500 127.2500  95.5000 Du        
   4257 ****       120.2500 127.2500  95.7500 Du        
   4258 ****       120.2500 127.2500  96.0000 Du        
   4259 ****       120.2500 127.2500  96.2500 Du        
   4260 ****       120.2500 127.2500  96.5000 Du        
   4261 ****       120.2500 127.2500  96.7500 Du        
   4262 ****       120.2500 127.2500  97.0000 Du        
   4263 ****       120.2500 127.2500  97.2500 Du        
   4264 ****       120.2500 127.2500 104.0000 Du        
   4265 ****       120.2500 127.2500 104.2500 Du        
   4266 ****       120.2500 127.2500 104.5000 Du        
   4267 ****       120.2500 127.2500 104.7500 Du        
   4268 ****       120.2500 127.2500 105.0000 Du        
   4269 ****       120.2500 127.2500 105.2500 Du        
   4270 ****       120.2500 127.5000  95.2500 Du        
   4271 ****       120.2500 127.5000  95.5000 Du        
   4272 ****       120.2500 127.5000  95.7500 Du        
   4273 ****       120.2500 127.5000  96.0000 Du        
   4274 ****       120.2500 127.5000  96.2500 Du        
   4275 ****       120.2500 127.5000  96.5000 Du        
   4276 ****       120.2500 127.5000  96.7500 Du        
   4277 ****       120.2500 127.5000  97.0000 Du        
   4278 ****       120.2500 127.5000  97.2500 Du        
   4279 ****       120.2500 127.5000  97.5000 Du        
   4280 ****       120.2500 127.5000  97.7500 Du        
   4281 ****       120.2500 127.5000 104.0000 Du        
   4282 ****       120.2500 127.5000 104.2500 Du        
   4283 ****       120.2500 127.5000 104.5000 Du        
   4284 ****       120.2500 127.5000 104.7500 Du        
   4285 ****       120.2500 127.5000 105.0000 Du        
   4286 ****       120.2500 127.7500  96.7500 Du        
   4287 ****       120.2500 127.7500  97.0000 Du        
   4288 ****       120.2500 127.7500  97.2500 Du        
   4289 ****       120.2500 127.7500  97.5000 Du        
   4290 ****       120.2500 127.7500  97.7500 Du        
   4291 ****       120.2500 127.7500 104.2500 Du        
   4292 ****       120.2500 127.7500 104.5000 Du        
   4293 ****       120.2500 127.7500 104.7500 Du        
   4294 ****       120.2500 127.7500 105.0000 Du        
   4295 ****       120.2500 128.0000 104.2500 Du        
   4296 ****       120.2500 128.0000 104.5000 Du        
   4297 ****       120.2500 128.0000 104.7500 Du        
   4298 ****       120.2500 132.7500 121.2500 Du        
   4299 ****       120.2500 133.0000 121.0000 Du        
   4300 ****       120.2500 133.0000 121.2500 Du        
   4301 ****       120.2500 133.7500 138.2500 Du        
   4302 ****       120.2500 133.7500 138.5000 Du        
   4303 ****       120.2500 133.7500 138.7500 Du        
   4304 ****       120.2500 133.7500 139.0000 Du        
   4305 ****       120.2500 133.7500 139.2500 Du        
   4306 ****       120.2500 134.0000 137.7500 Du        
   4307 ****       120.2500 134.0000 138.0000 Du        
   4308 ****       120.2500 134.0000 138.2500 Du        
   4309 ****       120.2500 134.0000 138.5000 Du        
   4310 ****       120.2500 134.0000 138.7500 Du        
   4311 ****       120.2500 134.0000 139.0000 Du        
   4312 ****       120.2500 134.0000 139.2500 Du        
   4313 ****       120.2500 134.2500 137.5000 Du        
   4314 ****       120.2500 134.2500 137.7500 Du        
   4315 ****       120.2500 134.2500 138.0000 Du        
   4316 ****       120.2500 134.2500 138.2500 Du        
   4317 ****       120.2500 134.2500 138.5000 Du        
   4318 ****       120.2500 134.2500 138.7500 Du        
   4319 ****       120.2500 134.2500 139.0000 Du        
   4320 ****       120.2500 134.2500 139.2500 Du        
   4321 ****       120.2500 134.5000 137.5000 Du        
   4322 ****       120.2500 134.5000 137.7500 Du        
   4323 ****       120.2500 134.5000 138.0000 Du        
   4324 ****       120.2500 134.5000 138.2500 Du        
   4325 ****       120.2500 134.5000 138.5000 Du        
   4326 ****       120.2500 134.5000 138.7500 Du        
   4327 ****       120.2500 134.7500 137.5000 Du        
   4328 ****       120.2500 134.7500 137.7500 Du        
   4329 ****       120.2500 134.7500 138.0000 Du        
   4330 ****       120.2500 134.7500 138.2500 Du        
   4331 ****       120.2500 142.2500 159.0000 Du        
   4332 ****       120.2500 142.2500 159.2500 Du        
   4333 ****       120.2500 142.2500 159.5000 Du        
   4334 ****       120.2500 142.5000 138.7500 Du        
   4335 ****       120.2500 142.5000 139.0000 Du        
   4336 ****       120.2500 142.5000 158.0000 Du        
   4337 ****       120.2500 142.5000 158.2500 Du        
   4338 ****       120.2500 142.5000 158.5000 Du        
   4339 ****       120.2500 142.5000 158.7500 Du        
   4340 ****       120.2500 142.5000 159.0000 Du        
   4341 ****       120.2500 142.5000 159.2500 Du        
   4342 ****       120.2500 142.5000 159.5000 Du        
   4343 ****       120.2500 142.5000 159.7500 Du        
   4344 ****       120.2500 142.5000 160.0000 Du        
   4345 ****       120.2500 142.7500 138.5000 Du        
   4346 ****       120.2500 142.7500 138.7500 Du        
   4347 ****       120.2500 142.7500 139.0000 Du        
   4348 ****       120.2500 142.7500 156.7500 Du        
   4349 ****       120.2500 142.7500 157.0000 Du        
   4350 ****       120.2500 142.7500 157.5000 Du        
   4351 ****       120.2500 142.7500 157.7500 Du        
   4352 ****       120.2500 142.7500 158.0000 Du        
   4353 ****       120.2500 142.7500 158.2500 Du        
   4354 ****       120.2500 142.7500 158.5000 Du        
   4355 ****       120.2500 142.7500 158.7500 Du        
   4356 ****       120.2500 142.7500 159.0000 Du        
   4357 ****       120.2500 142.7500 159.2500 Du        
   4358 ****       120.2500 142.7500 159.5000 Du        
   4359 ****       120.2500 142.7500 159.7500 Du        
   4360 ****       120.2500 142.7500 160.0000 Du        
   4361 ****       120.2500 142.7500 160.2500 Du        
   4362 ****       120.2500 142.7500 160.5000 Du        
   4363 ****       120.2500 143.0000 138.7500 Du        
   4364 ****       120.2500 143.0000 139.0000 Du        
   4365 ****       120.2500 143.0000 139.2500 Du        
   4366 ****       120.2500 143.0000 156.7500 Du        
   4367 ****       120.2500 143.0000 157.0000 Du        
   4368 ****       120.2500 143.0000 157.2500 Du        
   4369 ****       120.2500 143.0000 157.5000 Du        
   4370 ****       120.2500 143.0000 157.7500 Du        
   4371 ****       120.2500 143.0000 158.0000 Du        
   4372 ****       120.2500 143.0000 158.2500 Du        
   4373 ****       120.2500 143.0000 158.5000 Du        
   4374 ****       120.2500 143.0000 158.7500 Du        
   4375 ****       120.2500 143.0000 159.0000 Du        
   4376 ****       120.2500 143.0000 159.2500 Du        
   4377 ****       120.2500 143.0000 159.5000 Du        
   4378 ****       120.2500 143.0000 159.7500 Du        
   4379 ****       120.2500 143.0000 160.0000 Du        
   4380 ****       120.2500 143.0000 160.2500 Du        
   4381 ****       120.2500 143.0000 160.5000 Du        
   4382 ****       120.2500 143.0000 160.7500 Du        
   4383 ****       120.2500 143.2500 138.7500 Du        
   4384 ****       120.2500 143.2500 139.0000 Du        
   4385 ****       120.2500 143.2500 157.0000 Du        
   4386 ****       120.2500 143.2500 157.2500 Du        
   4387 ****       120.2500 143.2500 159.7500 Du        
   4388 ****       120.2500 143.2500 160.0000 Du        
   4389 ****       120.2500 143.2500 160.2500 Du        
   4390 ****       120.2500 143.2500 160.5000 Du        
   4391 ****       120.2500 143.2500 160.7500 Du        
   4392 ****       120.2500 143.2500 161.0000 Du        
   4393 ****       120.2500 143.5000 160.2500 Du        
   4394 ****       120.2500 143.5000 160.5000 Du        
   4395 ****       120.2500 143.5000 160.7500 Du        
   4396 ****       120.2500 143.5000 161.0000 Du        
   4397 ****       120.2500 144.7500 128.5000 Du        
   4398 ****       120.2500 144.7500 128.7500 Du        
   4399 ****       120.2500 146.5000 113.0000 Du        
   4400 ****       120.2500 146.7500 112.5000 Du        
   4401 ****       120.2500 146.7500 112.7500 Du        
   4402 ****       120.2500 146.7500 113.0000 Du        
   4403 ****       120.2500 146.7500 113.2500 Du        
   4404 ****       120.2500 147.0000 112.2500 Du        
   4405 ****       120.2500 147.0000 112.5000 Du        
   4406 ****       120.2500 147.0000 112.7500 Du        
   4407 ****       120.2500 147.0000 113.0000 Du        
   4408 ****       120.2500 147.0000 113.2500 Du        
   4409 ****       120.2500 147.0000 113.5000 Du        
   4410 ****       120.2500 147.2500 112.2500 Du        
   4411 ****       120.2500 147.2500 112.5000 Du        
   4412 ****       120.2500 147.2500 112.7500 Du        
   4413 ****       120.2500 147.2500 113.0000 Du        
   4414 ****       120.2500 147.2500 113.2500 Du        
   4415 ****       120.2500 147.5000 112.0000 Du        
   4416 ****       120.2500 147.5000 112.2500 Du        
   4417 ****       120.2500 147.5000 112.5000 Du        
   4418 ****       120.2500 147.5000 112.7500 Du        
   4419 ****       120.2500 147.5000 113.0000 Du        
   4420 ****       120.2500 147.7500 111.7500 Du        
   4421 ****       120.2500 147.7500 112.0000 Du        
   4422 ****       120.2500 147.7500 112.2500 Du        
   4423 ****       120.2500 148.0000 111.7500 Du        
   4424 ****       120.2500 148.0000 112.0000 Du        
   4425 ****       120.2500 148.0000 112.2500 Du        
   4426 ****       120.2500 148.2500 111.2500 Du        
   4427 ****       120.2500 148.2500 111.5000 Du        
   4428 ****       120.2500 148.2500 111.7500 Du        
   4429 ****       120.2500 148.7500 109.0000 Du        
   4430 ****       120.2500 148.7500 109.2500 Du        
   4431 ****       120.2500 148.7500 109.7500 Du        
   4432 ****       120.2500 148.7500 110.0000 Du        
   4433 ****       120.2500 149.0000 108.7500 Du        
   4434 ****       120.2500 149.0000 109.0000 Du        
   4435 ****       120.2500 149.0000 109.2500 Du        
   4436 ****       120.2500 149.0000 109.5000 Du        
   4437 ****       120.2500 149.0000 109.7500 Du        
   4438 ****       120.2500 149.0000 110.0000 Du        
   4439 ****       120.2500 149.2500 108.2500 Du        
   4440 ****       120.2500 149.2500 108.5000 Du        
   4441 ****       120.2500 149.2500 108.7500 Du        
   4442 ****       120.2500 149.2500 109.0000 Du        
   4443 ****       120.2500 149.2500 109.2500 Du        
   4444 ****       120.2500 149.2500 109.5000 Du        
   4445 ****       120.2500 149.2500 109.7500 Du        
   4446 ****       120.2500 149.5000 108.2500 Du        
   4447 ****       120.2500 149.5000 108.5000 Du        
   4448 ****       120.2500 149.5000 108.7500 Du        
   4449 ****       120.2500 149.5000 109.0000 Du        
   4450 ****       120.2500 149.5000 109.2500 Du        
   4451 ****       120.2500 149.7500 108.2500 Du        
   4452 ****       120.2500 149.7500 108.5000 Du        
   4453 ****       120.2500 149.7500 108.7500 Du        
   4454 ****       120.2500 149.7500 109.0000 Du        
   4455 ****       120.2500 149.7500 109.2500 Du        
   4456 ****       120.2500 150.0000 108.2500 Du        
   4457 ****       120.2500 150.0000 108.5000 Du        
   4458 ****       120.2500 150.0000 108.7500 Du        
   4459 ****       120.2500 150.0000 109.0000 Du        
   4460 ****       120.2500 150.2500 108.2500 Du        
   4461 ****       120.2500 150.2500 108.5000 Du        
   4462 ****       120.2500 150.2500 108.7500 Du        
   4463 ****       120.2500 154.2500  90.0000 Du        
   4464 ****       120.2500 154.2500  90.2500 Du        
   4465 ****       120.2500 154.2500  90.5000 Du        
   4466 ****       120.2500 154.5000  89.7500 Du        
   4467 ****       120.2500 154.5000  90.0000 Du        
   4468 ****       120.2500 154.5000  90.2500 Du        
   4469 ****       120.2500 154.5000  90.5000 Du        
   4470 ****       120.2500 154.7500  89.5000 Du        
   4471 ****       120.2500 154.7500  89.7500 Du        
   4472 ****       120.2500 154.7500  90.0000 Du        
   4473 ****       120.2500 154.7500  90.2500 Du        
   4474 ****       120.2500 154.7500  90.5000 Du        
   4475 ****       120.2500 154.7500  96.7500 Du        
   4476 ****       120.2500 154.7500  97.0000 Du        
   4477 ****       120.2500 154.7500  97.2500 Du        
   4478 ****       120.2500 155.0000  89.0000 Du        
   4479 ****       120.2500 155.0000  89.2500 Du        
   4480 ****       120.2500 155.0000  89.5000 Du        
   4481 ****       120.2500 155.0000  89.7500 Du        
   4482 ****       120.2500 155.0000  90.0000 Du        
   4483 ****       120.2500 155.0000  90.2500 Du        
   4484 ****       120.2500 155.0000  90.5000 Du        
   4485 ****       120.2500 155.0000  97.0000 Du        
   4486 ****       120.2500 155.0000  97.2500 Du        
   4487 ****       120.2500 155.0000  97.5000 Du        
   4488 ****       120.2500 155.2500  89.2500 Du        
   4489 ****       120.2500 155.2500  89.5000 Du        
   4490 ****       120.2500 155.2500  89.7500 Du        
   4491 ****       120.2500 155.2500  90.0000 Du        
   4492 ****       120.2500 155.2500  90.2500 Du        
   4493 ****       120.2500 155.2500  97.5000 Du        
   4494 ****       120.2500 163.2500 165.5000 Du        
   4495 ****       120.2500 163.2500 165.7500 Du        
   4496 ****       120.2500 163.5000 165.0000 Du        
   4497 ****       120.2500 163.5000 165.2500 Du        
   4498 ****       120.2500 163.5000 165.5000 Du        
   4499 ****       120.2500 163.5000 165.7500 Du        
   4500 ****       120.2500 163.5000 166.0000 Du        
   4501 ****       120.2500 163.5000 166.2500 Du        
   4502 ****       120.2500 163.7500 164.7500 Du        
   4503 ****       120.2500 163.7500 165.0000 Du        
   4504 ****       120.2500 163.7500 165.2500 Du        
   4505 ****       120.2500 163.7500 165.5000 Du        
   4506 ****       120.2500 163.7500 165.7500 Du        
   4507 ****       120.2500 163.7500 166.0000 Du        
   4508 ****       120.2500 163.7500 166.2500 Du        
   4509 ****       120.2500 163.7500 166.5000 Du        
   4510 ****       120.2500 163.7500 166.7500 Du        
   4511 ****       120.2500 164.0000 164.7500 Du        
   4512 ****       120.2500 164.0000 165.0000 Du        
   4513 ****       120.2500 164.0000 165.2500 Du        
   4514 ****       120.2500 164.0000 165.5000 Du        
   4515 ****       120.2500 164.0000 165.7500 Du        
   4516 ****       120.2500 164.0000 166.0000 Du        
   4517 ****       120.2500 164.0000 166.2500 Du        
   4518 ****       120.2500 164.0000 166.5000 Du        
   4519 ****       120.2500 164.0000 166.7500 Du        
   4520 ****       120.2500 164.0000 167.0000 Du        
   4521 ****       120.2500 164.2500 164.7500 Du        
   4522 ****       120.2500 164.2500 165.0000 Du        
   4523 ****       120.2500 164.2500 165.2500 Du        
   4524 ****       120.2500 164.2500 165.5000 Du        
   4525 ****       120.2500 164.2500 165.7500 Du        
   4526 ****       120.2500 164.2500 166.0000 Du        
   4527 ****       120.2500 164.2500 166.2500 Du        
   4528 ****       120.2500 164.2500 166.5000 Du        
   4529 ****       120.2500 164.2500 166.7500 Du        
   4530 ****       120.2500 164.2500 167.0000 Du        
   4531 ****       120.2500 164.5000 165.7500 Du        
   4532 ****       120.2500 164.5000 166.0000 Du        
   4533 ****       120.2500 164.5000 166.2500 Du        
   4534 ****       120.2500 164.5000 166.5000 Du        
   4535 ****       120.2500 164.5000 166.7500 Du        
   4536 ****       120.2500 164.5000 167.0000 Du        
   4537 ****       120.2500 164.7500 166.0000 Du        
   4538 ****       120.2500 164.7500 166.2500 Du        
   4539 ****       120.2500 164.7500 166.5000 Du        
   4540 ****       120.5000 121.2500 164.7500 Du        
   4541 ****       120.5000 121.2500 165.0000 Du        
   4542 ****       120.5000 121.5000 164.7500 Du        
   4543 ****       120.5000 121.5000 165.0000 Du        
   4544 ****       120.5000 121.7500 164.7500 Du        
   4545 ****       120.5000 121.7500 165.0000 Du        
   4546 ****       120.5000 122.0000 165.0000 Du        
   4547 ****       120.5000 126.0000 105.5000 Du        
   4548 ****       120.5000 126.0000 105.7500 Du        
   4549 ****       120.5000 126.2500 104.5000 Du        
   4550 ****       120.5000 126.2500 104.7500 Du        
   4551 ****       120.5000 126.2500 105.0000 Du        
   4552 ****       120.5000 126.2500 105.2500 Du        
   4553 ****       120.5000 126.2500 105.5000 Du        
   4554 ****       120.5000 126.5000 104.0000 Du        
   4555 ****       120.5000 126.5000 104.2500 Du        
   4556 ****       120.5000 126.5000 104.5000 Du        
   4557 ****       120.5000 126.5000 104.7500 Du        
   4558 ****       120.5000 126.5000 105.0000 Du        
   4559 ****       120.5000 126.5000 105.2500 Du        
   4560 ****       120.5000 126.5000 105.5000 Du        
   4561 ****       120.5000 126.7500  95.7500 Du        
   4562 ****       120.5000 126.7500  96.0000 Du        
   4563 ****       120.5000 126.7500 104.0000 Du        
   4564 ****       120.5000 126.7500 104.2500 Du        
   4565 ****       120.5000 126.7500 104.5000 Du        
   4566 ****       120.5000 126.7500 104.7500 Du        
   4567 ****       120.5000 126.7500 105.0000 Du        
   4568 ****       120.5000 126.7500 105.2500 Du        
   4569 ****       120.5000 126.7500 105.5000 Du        
   4570 ****       120.5000 127.0000  95.5000 Du        
   4571 ****       120.5000 127.0000  95.7500 Du        
   4572 ****       120.5000 127.0000  96.0000 Du        
   4573 ****       120.5000 127.0000  96.2500 Du        
   4574 ****       120.5000 127.0000  96.5000 Du        
   4575 ****       120.5000 127.0000  97.0000 Du        
   4576 ****       120.5000 127.0000  97.2500 Du        
   4577 ****       120.5000 127.0000  97.5000 Du        
   4578 ****       120.5000 127.0000 104.0000 Du        
   4579 ****       120.5000 127.0000 104.2500 Du        
   4580 ****       120.5000 127.0000 104.5000 Du        
   4581 ****       120.5000 127.0000 104.7500 Du        
   4582 ****       120.5000 127.0000 105.0000 Du        
   4583 ****       120.5000 127.0000 105.2500 Du        
   4584 ****       120.5000 127.2500  95.2500 Du        
   4585 ****       120.5000 127.2500  95.5000 Du        
   4586 ****       120.5000 127.2500  95.7500 Du        
   4587 ****       120.5000 127.2500  96.0000 Du        
   4588 ****       120.5000 127.2500  96.2500 Du        
   4589 ****       120.5000 127.2500  96.5000 Du        
   4590 ****       120.5000 127.2500  96.7500 Du        
   4591 ****       120.5000 127.2500  97.0000 Du        
   4592 ****       120.5000 127.2500  97.2500 Du        
   4593 ****       120.5000 127.2500  97.5000 Du        
   4594 ****       120.5000 127.2500  97.7500 Du        
   4595 ****       120.5000 127.2500 104.0000 Du        
   4596 ****       120.5000 127.2500 104.2500 Du        
   4597 ****       120.5000 127.2500 104.5000 Du        
   4598 ****       120.5000 127.2500 104.7500 Du        
   4599 ****       120.5000 127.2500 105.0000 Du        
   4600 ****       120.5000 127.2500 105.2500 Du        
   4601 ****       120.5000 127.5000  95.2500 Du        
   4602 ****       120.5000 127.5000  95.5000 Du        
   4603 ****       120.5000 127.5000  95.7500 Du        
   4604 ****       120.5000 127.5000  96.0000 Du        
   4605 ****       120.5000 127.5000  96.2500 Du        
   4606 ****       120.5000 127.5000  96.5000 Du        
   4607 ****       120.5000 127.5000  96.7500 Du        
   4608 ****       120.5000 127.5000  97.0000 Du        
   4609 ****       120.5000 127.5000  97.2500 Du        
   4610 ****       120.5000 127.5000  97.5000 Du        
   4611 ****       120.5000 127.5000  97.7500 Du        
   4612 ****       120.5000 127.5000  98.0000 Du        
   4613 ****       120.5000 127.5000 104.2500 Du        
   4614 ****       120.5000 127.5000 104.5000 Du        
   4615 ****       120.5000 127.5000 104.7500 Du        
   4616 ****       120.5000 127.5000 105.0000 Du        
   4617 ****       120.5000 127.7500  95.5000 Du        
   4618 ****       120.5000 127.7500  95.7500 Du        
   4619 ****       120.5000 127.7500  96.0000 Du        
   4620 ****       120.5000 127.7500  96.2500 Du        
   4621 ****       120.5000 127.7500  96.5000 Du        
   4622 ****       120.5000 127.7500  96.7500 Du        
   4623 ****       120.5000 127.7500  97.0000 Du        
   4624 ****       120.5000 127.7500  97.2500 Du        
   4625 ****       120.5000 127.7500  97.5000 Du        
   4626 ****       120.5000 127.7500  97.7500 Du        
   4627 ****       120.5000 127.7500 104.2500 Du        
   4628 ****       120.5000 127.7500 104.5000 Du        
   4629 ****       120.5000 127.7500 104.7500 Du        
   4630 ****       120.5000 127.7500 105.0000 Du        
   4631 ****       120.5000 128.0000  97.2500 Du        
   4632 ****       120.5000 128.0000 104.5000 Du        
   4633 ****       120.5000 128.0000 104.7500 Du        
   4634 ****       120.5000 133.5000 139.2500 Du        
   4635 ****       120.5000 133.7500 138.2500 Du        
   4636 ****       120.5000 133.7500 138.5000 Du        
   4637 ****       120.5000 133.7500 138.7500 Du        
   4638 ****       120.5000 133.7500 139.0000 Du        
   4639 ****       120.5000 133.7500 139.2500 Du        
   4640 ****       120.5000 134.0000 137.7500 Du        
   4641 ****       120.5000 134.0000 138.0000 Du        
   4642 ****       120.5000 134.0000 138.2500 Du        
   4643 ****       120.5000 134.0000 138.5000 Du        
   4644 ****       120.5000 134.0000 138.7500 Du        
   4645 ****       120.5000 134.0000 139.0000 Du        
   4646 ****       120.5000 134.0000 139.2500 Du        
   4647 ****       120.5000 134.2500 137.5000 Du        
   4648 ****       120.5000 134.2500 137.7500 Du        
   4649 ****       120.5000 134.2500 138.0000 Du        
   4650 ****       120.5000 134.2500 138.2500 Du        
   4651 ****       120.5000 134.2500 138.5000 Du        
   4652 ****       120.5000 134.2500 138.7500 Du        
   4653 ****       120.5000 134.2500 139.0000 Du        
   4654 ****       120.5000 134.2500 139.2500 Du        
   4655 ****       120.5000 134.5000 137.2500 Du        
   4656 ****       120.5000 134.5000 137.5000 Du        
   4657 ****       120.5000 134.5000 137.7500 Du        
   4658 ****       120.5000 134.5000 138.0000 Du        
   4659 ****       120.5000 134.5000 138.2500 Du        
   4660 ****       120.5000 134.5000 138.5000 Du        
   4661 ****       120.5000 134.7500 137.2500 Du        
   4662 ****       120.5000 134.7500 137.5000 Du        
   4663 ****       120.5000 134.7500 137.7500 Du        
   4664 ****       120.5000 134.7500 138.0000 Du        
   4665 ****       120.5000 142.5000 159.0000 Du        
   4666 ****       120.5000 142.5000 159.2500 Du        
   4667 ****       120.5000 142.5000 159.5000 Du        
   4668 ****       120.5000 142.5000 159.7500 Du        
   4669 ****       120.5000 142.5000 160.0000 Du        
   4670 ****       120.5000 142.7500 157.5000 Du        
   4671 ****       120.5000 142.7500 157.7500 Du        
   4672 ****       120.5000 142.7500 158.0000 Du        
   4673 ****       120.5000 142.7500 158.2500 Du        
   4674 ****       120.5000 142.7500 158.5000 Du        
   4675 ****       120.5000 142.7500 158.7500 Du        
   4676 ****       120.5000 142.7500 159.0000 Du        
   4677 ****       120.5000 142.7500 159.2500 Du        
   4678 ****       120.5000 142.7500 159.5000 Du        
   4679 ****       120.5000 142.7500 159.7500 Du        
   4680 ****       120.5000 142.7500 160.0000 Du        
   4681 ****       120.5000 142.7500 160.2500 Du        
   4682 ****       120.5000 143.0000 156.7500 Du        
   4683 ****       120.5000 143.0000 157.0000 Du        
   4684 ****       120.5000 143.0000 157.2500 Du        
   4685 ****       120.5000 143.0000 157.5000 Du        
   4686 ****       120.5000 143.0000 157.7500 Du        
   4687 ****       120.5000 143.0000 158.0000 Du        
   4688 ****       120.5000 143.0000 158.2500 Du        
   4689 ****       120.5000 143.0000 158.5000 Du        
   4690 ****       120.5000 143.0000 158.7500 Du        
   4691 ****       120.5000 143.0000 159.0000 Du        
   4692 ****       120.5000 143.0000 159.2500 Du        
   4693 ****       120.5000 143.0000 159.5000 Du        
   4694 ****       120.5000 143.0000 159.7500 Du        
   4695 ****       120.5000 143.0000 160.0000 Du        
   4696 ****       120.5000 143.0000 160.2500 Du        
   4697 ****       120.5000 143.0000 160.5000 Du        
   4698 ****       120.5000 143.0000 160.7500 Du        
   4699 ****       120.5000 143.2500 157.0000 Du        
   4700 ****       120.5000 143.2500 157.2500 Du        
   4701 ****       120.5000 143.2500 157.5000 Du        
   4702 ****       120.5000 143.2500 157.7500 Du        
   4703 ****       120.5000 143.2500 158.0000 Du        
   4704 ****       120.5000 143.2500 158.2500 Du        
   4705 ****       120.5000 143.2500 158.5000 Du        
   4706 ****       120.5000 143.2500 158.7500 Du        
   4707 ****       120.5000 143.2500 159.0000 Du        
   4708 ****       120.5000 143.2500 159.2500 Du        
   4709 ****       120.5000 143.2500 159.5000 Du        
   4710 ****       120.5000 143.2500 159.7500 Du        
   4711 ****       120.5000 143.2500 160.0000 Du        
   4712 ****       120.5000 143.2500 160.2500 Du        
   4713 ****       120.5000 143.2500 160.5000 Du        
   4714 ****       120.5000 143.2500 160.7500 Du        
   4715 ****       120.5000 143.5000 157.5000 Du        
   4716 ****       120.5000 143.5000 157.7500 Du        
   4717 ****       120.5000 143.5000 158.0000 Du        
   4718 ****       120.5000 143.5000 158.2500 Du        
   4719 ****       120.5000 143.5000 158.5000 Du        
   4720 ****       120.5000 143.5000 158.7500 Du        
   4721 ****       120.5000 143.5000 159.0000 Du        
   4722 ****       120.5000 143.5000 159.2500 Du        
   4723 ****       120.5000 143.5000 159.5000 Du        
   4724 ****       120.5000 143.5000 159.7500 Du        
   4725 ****       120.5000 143.5000 160.0000 Du        
   4726 ****       120.5000 143.5000 160.2500 Du        
   4727 ****       120.5000 143.5000 160.5000 Du        
   4728 ****       120.5000 143.5000 160.7500 Du        
   4729 ****       120.5000 144.5000 128.5000 Du        
   4730 ****       120.5000 144.7500 128.5000 Du        
   4731 ****       120.5000 144.7500 128.7500 Du        
   4732 ****       120.5000 145.0000 128.5000 Du        
   4733 ****       120.5000 145.0000 128.7500 Du        
   4734 ****       120.5000 145.0000 129.0000 Du        
   4735 ****       120.5000 146.5000 112.5000 Du        
   4736 ****       120.5000 146.5000 112.7500 Du        
   4737 ****       120.5000 146.5000 113.0000 Du        
   4738 ****       120.5000 146.7500 112.2500 Du        
   4739 ****       120.5000 146.7500 112.5000 Du        
   4740 ****       120.5000 146.7500 112.7500 Du        
   4741 ****       120.5000 146.7500 113.0000 Du        
   4742 ****       120.5000 146.7500 113.2500 Du        
   4743 ****       120.5000 147.0000 112.0000 Du        
   4744 ****       120.5000 147.0000 112.2500 Du        
   4745 ****       120.5000 147.0000 112.5000 Du        
   4746 ****       120.5000 147.0000 112.7500 Du        
   4747 ****       120.5000 147.0000 113.0000 Du        
   4748 ****       120.5000 147.0000 113.2500 Du        
   4749 ****       120.5000 147.0000 113.5000 Du        
   4750 ****       120.5000 147.2500 111.7500 Du        
   4751 ****       120.5000 147.2500 112.0000 Du        
   4752 ****       120.5000 147.2500 112.2500 Du        
   4753 ****       120.5000 147.2500 112.5000 Du        
   4754 ****       120.5000 147.2500 112.7500 Du        
   4755 ****       120.5000 147.2500 113.0000 Du        
   4756 ****       120.5000 147.2500 113.2500 Du        
   4757 ****       120.5000 147.2500 113.5000 Du        
   4758 ****       120.5000 147.5000 111.7500 Du        
   4759 ****       120.5000 147.5000 112.0000 Du        
   4760 ****       120.5000 147.5000 112.2500 Du        
   4761 ****       120.5000 147.5000 112.5000 Du        
   4762 ****       120.5000 147.5000 112.7500 Du        
   4763 ****       120.5000 147.5000 113.0000 Du        
   4764 ****       120.5000 147.5000 113.2500 Du        
   4765 ****       120.5000 147.7500 111.2500 Du        
   4766 ****       120.5000 147.7500 111.5000 Du        
   4767 ****       120.5000 147.7500 111.7500 Du        
   4768 ****       120.5000 147.7500 112.0000 Du        
   4769 ****       120.5000 147.7500 112.2500 Du        
   4770 ****       120.5000 147.7500 112.5000 Du        
   4771 ****       120.5000 147.7500 112.7500 Du        
   4772 ****       120.5000 147.7500 113.0000 Du        
   4773 ****       120.5000 148.0000 111.0000 Du        
   4774 ****       120.5000 148.0000 111.2500 Du        
   4775 ****       120.5000 148.0000 111.5000 Du        
   4776 ****       120.5000 148.0000 111.7500 Du        
   4777 ****       120.5000 148.0000 112.0000 Du        
   4778 ****       120.5000 148.0000 112.2500 Du        
   4779 ****       120.5000 148.0000 112.5000 Du        
   4780 ****       120.5000 148.0000 112.7500 Du        
   4781 ****       120.5000 148.2500 110.2500 Du        
   4782 ****       120.5000 148.2500 110.5000 Du        
   4783 ****       120.5000 148.2500 110.7500 Du        
   4784 ****       120.5000 148.2500 111.0000 Du        
   4785 ****       120.5000 148.2500 111.2500 Du        
   4786 ****       120.5000 148.2500 111.5000 Du        
   4787 ****       120.5000 148.2500 111.7500 Du        
   4788 ****       120.5000 148.2500 112.0000 Du        
   4789 ****       120.5000 148.2500 112.2500 Du        
   4790 ****       120.5000 148.5000 110.0000 Du        
   4791 ****       120.5000 148.5000 110.2500 Du        
   4792 ****       120.5000 148.5000 110.5000 Du        
   4793 ****       120.5000 148.5000 110.7500 Du        
   4794 ****       120.5000 148.5000 111.0000 Du        
   4795 ****       120.5000 148.5000 111.2500 Du        
   4796 ****       120.5000 148.7500 109.7500 Du        
   4797 ****       120.5000 148.7500 110.0000 Du        
   4798 ****       120.5000 148.7500 110.2500 Du        
   4799 ****       120.5000 148.7500 110.5000 Du        
   4800 ****       120.5000 148.7500 110.7500 Du        
   4801 ****       120.5000 148.7500 111.0000 Du        
   4802 ****       120.5000 148.7500 111.2500 Du        
   4803 ****       120.5000 149.0000 109.2500 Du        
   4804 ****       120.5000 149.0000 109.5000 Du        
   4805 ****       120.5000 149.0000 109.7500 Du        
   4806 ****       120.5000 149.0000 110.0000 Du        
   4807 ****       120.5000 149.0000 110.2500 Du        
   4808 ****       120.5000 149.2500 108.7500 Du        
   4809 ****       120.5000 149.2500 109.0000 Du        
   4810 ****       120.5000 149.2500 109.2500 Du        
   4811 ****       120.5000 149.2500 109.5000 Du        
   4812 ****       120.5000 149.2500 109.7500 Du        
   4813 ****       120.5000 149.2500 110.0000 Du        
   4814 ****       120.5000 149.5000 108.2500 Du        
   4815 ****       120.5000 149.5000 108.5000 Du        
   4816 ****       120.5000 149.5000 108.7500 Du        
   4817 ****       120.5000 149.5000 109.0000 Du        
   4818 ****       120.5000 149.5000 109.2500 Du        
   4819 ****       120.5000 149.7500 108.2500 Du        
   4820 ****       120.5000 149.7500 108.5000 Du        
   4821 ****       120.5000 149.7500 108.7500 Du        
   4822 ****       120.5000 149.7500 109.0000 Du        
   4823 ****       120.5000 149.7500 109.2500 Du        
   4824 ****       120.5000 150.0000 108.2500 Du        
   4825 ****       120.5000 150.0000 108.5000 Du        
   4826 ****       120.5000 150.0000 108.7500 Du        
   4827 ****       120.5000 150.0000 109.0000 Du        
   4828 ****       120.5000 150.2500 108.2500 Du        
   4829 ****       120.5000 150.2500 108.5000 Du        
   4830 ****       120.5000 150.2500 108.7500 Du        
   4831 ****       120.5000 150.5000 108.2500 Du        
   4832 ****       120.5000 150.5000 108.5000 Du        
   4833 ****       120.5000 150.5000 108.7500 Du        
   4834 ****       120.5000 150.7500 108.5000 Du        
   4835 ****       120.5000 151.0000 108.5000 Du        
   4836 ****       120.5000 154.2500  90.0000 Du        
   4837 ****       120.5000 154.2500  90.2500 Du        
   4838 ****       120.5000 154.2500  90.5000 Du        
   4839 ****       120.5000 154.5000  89.5000 Du        
   4840 ****       120.5000 154.5000  89.7500 Du        
   4841 ****       120.5000 154.5000  90.0000 Du        
   4842 ****       120.5000 154.5000  90.2500 Du        
   4843 ****       120.5000 154.7500  89.0000 Du        
   4844 ****       120.5000 154.7500  89.2500 Du        
   4845 ****       120.5000 154.7500  89.5000 Du        
   4846 ****       120.5000 154.7500  89.7500 Du        
   4847 ****       120.5000 154.7500  90.0000 Du        
   4848 ****       120.5000 154.7500  90.2500 Du        
   4849 ****       120.5000 154.7500  90.5000 Du        
   4850 ****       120.5000 154.7500  96.7500 Du        
   4851 ****       120.5000 154.7500  97.0000 Du        
   4852 ****       120.5000 154.7500  97.2500 Du        
   4853 ****       120.5000 155.0000  88.7500 Du        
   4854 ****       120.5000 155.0000  89.0000 Du        
   4855 ****       120.5000 155.0000  89.2500 Du        
   4856 ****       120.5000 155.0000  89.5000 Du        
   4857 ****       120.5000 155.0000  89.7500 Du        
   4858 ****       120.5000 155.0000  90.0000 Du        
   4859 ****       120.5000 155.0000  90.2500 Du        
   4860 ****       120.5000 155.0000  90.5000 Du        
   4861 ****       120.5000 155.0000  97.0000 Du        
   4862 ****       120.5000 155.0000  97.2500 Du        
   4863 ****       120.5000 155.0000  97.5000 Du        
   4864 ****       120.5000 155.0000  97.7500 Du        
   4865 ****       120.5000 155.2500  88.7500 Du        
   4866 ****       120.5000 155.2500  89.0000 Du        
   4867 ****       120.5000 155.2500  89.2500 Du        
   4868 ****       120.5000 155.2500  89.5000 Du        
   4869 ****       120.5000 155.2500  89.7500 Du        
   4870 ****       120.5000 155.2500  90.0000 Du        
   4871 ****       120.5000 155.2500  90.2500 Du        
   4872 ****       120.5000 155.2500  97.0000 Du        
   4873 ****       120.5000 155.2500  97.2500 Du        
   4874 ****       120.5000 155.2500  97.5000 Du        
   4875 ****       120.5000 155.2500  97.7500 Du        
   4876 ****       120.5000 155.2500  98.0000 Du        
   4877 ****       120.5000 163.2500 164.7500 Du        
   4878 ****       120.5000 163.2500 165.0000 Du        
   4879 ****       120.5000 163.2500 165.2500 Du        
   4880 ****       120.5000 163.2500 165.5000 Du        
   4881 ****       120.5000 163.2500 165.7500 Du        
   4882 ****       120.5000 163.2500 166.0000 Du        
   4883 ****       120.5000 163.5000 164.7500 Du        
   4884 ****       120.5000 163.5000 165.0000 Du        
   4885 ****       120.5000 163.5000 165.2500 Du        
   4886 ****       120.5000 163.5000 165.5000 Du        
   4887 ****       120.5000 163.5000 165.7500 Du        
   4888 ****       120.5000 163.5000 166.0000 Du        
   4889 ****       120.5000 163.5000 166.2500 Du        
   4890 ****       120.5000 163.5000 166.5000 Du        
   4891 ****       120.5000 163.7500 164.5000 Du        
   4892 ****       120.5000 163.7500 164.7500 Du        
   4893 ****       120.5000 163.7500 165.0000 Du        
   4894 ****       120.5000 163.7500 165.2500 Du        
   4895 ****       120.5000 163.7500 165.5000 Du        
   4896 ****       120.5000 163.7500 165.7500 Du        
   4897 ****       120.5000 163.7500 166.0000 Du        
   4898 ****       120.5000 163.7500 166.2500 Du        
   4899 ****       120.5000 163.7500 166.5000 Du        
   4900 ****       120.5000 163.7500 166.7500 Du        
   4901 ****       120.5000 163.7500 167.0000 Du        
   4902 ****       120.5000 164.0000 164.5000 Du        
   4903 ****       120.5000 164.0000 164.7500 Du        
   4904 ****       120.5000 164.0000 165.0000 Du        
   4905 ****       120.5000 164.0000 165.2500 Du        
   4906 ****       120.5000 164.0000 165.5000 Du        
   4907 ****       120.5000 164.0000 165.7500 Du        
   4908 ****       120.5000 164.0000 166.0000 Du        
   4909 ****       120.5000 164.0000 166.2500 Du        
   4910 ****       120.5000 164.0000 166.5000 Du        
   4911 ****       120.5000 164.0000 166.7500 Du        
   4912 ****       120.5000 164.0000 167.0000 Du        
   4913 ****       120.5000 164.2500 164.5000 Du        
   4914 ****       120.5000 164.2500 164.7500 Du        
   4915 ****       120.5000 164.2500 165.0000 Du        
   4916 ****       120.5000 164.2500 165.2500 Du        
   4917 ****       120.5000 164.2500 165.5000 Du        
   4918 ****       120.5000 164.2500 165.7500 Du        
   4919 ****       120.5000 164.2500 166.0000 Du        
   4920 ****       120.5000 164.2500 166.2500 Du        
   4921 ****       120.5000 164.2500 166.5000 Du        
   4922 ****       120.5000 164.2500 166.7500 Du        
   4923 ****       120.5000 164.2500 167.0000 Du        
   4924 ****       120.5000 164.5000 165.5000 Du        
   4925 ****       120.5000 164.5000 165.7500 Du        
   4926 ****       120.5000 164.5000 166.0000 Du        
   4927 ****       120.5000 164.5000 166.2500 Du        
   4928 ****       120.5000 164.5000 166.5000 Du        
   4929 ****       120.5000 164.5000 166.7500 Du        
   4930 ****       120.5000 164.5000 167.0000 Du        
   4931 ****       120.5000 164.7500 165.5000 Du        
   4932 ****       120.5000 164.7500 165.7500 Du        
   4933 ****       120.5000 164.7500 166.0000 Du        
   4934 ****       120.5000 164.7500 166.2500 Du        
   4935 ****       120.5000 164.7500 166.5000 Du        
   4936 ****       120.5000 165.0000 166.0000 Du        
   4937 ****       120.5000 165.0000 166.2500 Du        
   4938 ****       120.7500 121.2500 164.7500 Du        
   4939 ****       120.7500 121.2500 165.0000 Du        
   4940 ****       120.7500 121.5000 164.7500 Du        
   4941 ****       120.7500 121.5000 165.0000 Du        
   4942 ****       120.7500 121.7500 164.7500 Du        
   4943 ****       120.7500 121.7500 165.0000 Du        
   4944 ****       120.7500 125.7500 105.5000 Du        
   4945 ****       120.7500 125.7500 105.7500 Du        
   4946 ****       120.7500 126.0000 104.7500 Du        
   4947 ****       120.7500 126.0000 105.0000 Du        
   4948 ****       120.7500 126.0000 105.2500 Du        
   4949 ****       120.7500 126.0000 105.5000 Du        
   4950 ****       120.7500 126.0000 105.7500 Du        
   4951 ****       120.7500 126.2500 104.5000 Du        
   4952 ****       120.7500 126.2500 104.7500 Du        
   4953 ****       120.7500 126.2500 105.0000 Du        
   4954 ****       120.7500 126.2500 105.2500 Du        
   4955 ****       120.7500 126.2500 105.5000 Du        
   4956 ****       120.7500 126.2500 105.7500 Du        
   4957 ****       120.7500 126.5000 104.0000 Du        
   4958 ****       120.7500 126.5000 104.2500 Du        
   4959 ****       120.7500 126.5000 104.5000 Du        
   4960 ****       120.7500 126.5000 104.7500 Du        
   4961 ****       120.7500 126.5000 105.0000 Du        
   4962 ****       120.7500 126.5000 105.2500 Du        
   4963 ****       120.7500 126.5000 105.5000 Du        
   4964 ****       120.7500 126.7500  96.0000 Du        
   4965 ****       120.7500 126.7500  96.2500 Du        
   4966 ****       120.7500 126.7500 104.0000 Du        
   4967 ****       120.7500 126.7500 104.2500 Du        
   4968 ****       120.7500 126.7500 104.5000 Du        
   4969 ****       120.7500 126.7500 104.7500 Du        
   4970 ****       120.7500 126.7500 105.0000 Du        
   4971 ****       120.7500 126.7500 105.2500 Du        
   4972 ****       120.7500 126.7500 105.5000 Du        
   4973 ****       120.7500 127.0000  95.7500 Du        
   4974 ****       120.7500 127.0000  96.0000 Du        
   4975 ****       120.7500 127.0000  96.2500 Du        
   4976 ****       120.7500 127.0000  96.5000 Du        
   4977 ****       120.7500 127.0000  96.7500 Du        
   4978 ****       120.7500 127.0000  97.0000 Du        
   4979 ****       120.7500 127.0000  97.2500 Du        
   4980 ****       120.7500 127.0000  97.5000 Du        
   4981 ****       120.7500 127.0000  97.7500 Du        
   4982 ****       120.7500 127.0000 104.0000 Du        
   4983 ****       120.7500 127.0000 104.2500 Du        
   4984 ****       120.7500 127.0000 104.5000 Du        
   4985 ****       120.7500 127.0000 104.7500 Du        
   4986 ****       120.7500 127.0000 105.0000 Du        
   4987 ****       120.7500 127.0000 105.2500 Du        
   4988 ****       120.7500 127.2500  95.5000 Du        
   4989 ****       120.7500 127.2500  95.7500 Du        
   4990 ****       120.7500 127.2500  96.0000 Du        
   4991 ****       120.7500 127.2500  96.2500 Du        
   4992 ****       120.7500 127.2500  96.5000 Du        
   4993 ****       120.7500 127.2500  96.7500 Du        
   4994 ****       120.7500 127.2500  97.0000 Du        
   4995 ****       120.7500 127.2500  97.2500 Du        
   4996 ****       120.7500 127.2500  97.5000 Du        
   4997 ****       120.7500 127.2500  97.7500 Du        
   4998 ****       120.7500 127.2500 104.2500 Du        
   4999 ****       120.7500 127.2500 104.5000 Du        
   5000 ****       120.7500 127.2500 104.7500 Du        
   5001 ****       120.7500 127.2500 105.0000 Du        
   5002 ****       120.7500 127.2500 105.2500 Du        
   5003 ****       120.7500 127.5000  95.2500 Du        
   5004 ****       120.7500 127.5000  95.5000 Du        
   5005 ****       120.7500 127.5000  95.7500 Du        
   5006 ****       120.7500 127.5000  96.0000 Du        
   5007 ****       120.7500 127.5000  96.2500 Du        
   5008 ****       120.7500 127.5000  96.5000 Du        
   5009 ****       120.7500 127.5000  96.7500 Du        
   5010 ****       120.7500 127.5000  97.0000 Du        
   5011 ****       120.7500 127.5000  97.2500 Du        
   5012 ****       120.7500 127.5000  97.5000 Du        
   5013 ****       120.7500 127.5000  97.7500 Du        
   5014 ****       120.7500 127.5000 104.2500 Du        
   5015 ****       120.7500 127.5000 104.5000 Du        
   5016 ****       120.7500 127.5000 104.7500 Du        
   5017 ****       120.7500 127.5000 105.0000 Du        
   5018 ****       120.7500 127.7500  95.5000 Du        
   5019 ****       120.7500 127.7500  95.7500 Du        
   5020 ****       120.7500 127.7500  96.0000 Du        
   5021 ****       120.7500 127.7500  96.2500 Du        
   5022 ****       120.7500 127.7500  96.5000 Du        
   5023 ****       120.7500 127.7500  96.7500 Du        
   5024 ****       120.7500 127.7500  97.0000 Du        
   5025 ****       120.7500 127.7500  97.2500 Du        
   5026 ****       120.7500 127.7500  97.5000 Du        
   5027 ****       120.7500 127.7500  97.7500 Du        
   5028 ****       120.7500 127.7500 104.5000 Du        
   5029 ****       120.7500 127.7500 104.7500 Du        
   5030 ****       120.7500 127.7500 105.0000 Du        
   5031 ****       120.7500 128.0000  96.7500 Du        
   5032 ****       120.7500 128.0000  97.0000 Du        
   5033 ****       120.7500 128.0000  97.2500 Du        
   5034 ****       120.7500 128.0000  97.5000 Du        
   5035 ****       120.7500 131.5000 161.7500 Du        
   5036 ****       120.7500 133.7500 138.2500 Du        
   5037 ****       120.7500 133.7500 138.5000 Du        
   5038 ****       120.7500 133.7500 138.7500 Du        
   5039 ****       120.7500 133.7500 139.0000 Du        
   5040 ****       120.7500 133.7500 139.2500 Du        
   5041 ****       120.7500 134.0000 137.7500 Du        
   5042 ****       120.7500 134.0000 138.0000 Du        
   5043 ****       120.7500 134.0000 138.2500 Du        
   5044 ****       120.7500 134.0000 138.5000 Du        
   5045 ****       120.7500 134.0000 138.7500 Du        
   5046 ****       120.7500 134.0000 139.0000 Du        
   5047 ****       120.7500 134.0000 139.2500 Du        
   5048 ****       120.7500 134.2500 137.2500 Du        
   5049 ****       120.7500 134.2500 137.5000 Du        
   5050 ****       120.7500 134.2500 137.7500 Du        
   5051 ****       120.7500 134.2500 138.0000 Du        
   5052 ****       120.7500 134.2500 138.2500 Du        
   5053 ****       120.7500 134.2500 138.5000 Du        
   5054 ****       120.7500 134.2500 138.7500 Du        
   5055 ****       120.7500 134.2500 139.0000 Du        
   5056 ****       120.7500 134.2500 139.2500 Du        
   5057 ****       120.7500 134.5000 137.2500 Du        
   5058 ****       120.7500 134.5000 137.5000 Du        
   5059 ****       120.7500 134.5000 137.7500 Du        
   5060 ****       120.7500 134.5000 138.0000 Du        
   5061 ****       120.7500 134.5000 138.2500 Du        
   5062 ****       120.7500 134.5000 138.5000 Du        
   5063 ****       120.7500 134.7500 137.2500 Du        
   5064 ****       120.7500 134.7500 137.5000 Du        
   5065 ****       120.7500 134.7500 137.7500 Du        
   5066 ****       120.7500 134.7500 138.0000 Du        
   5067 ****       120.7500 142.5000 159.5000 Du        
   5068 ****       120.7500 142.5000 159.7500 Du        
   5069 ****       120.7500 142.7500 158.5000 Du        
   5070 ****       120.7500 142.7500 158.7500 Du        
   5071 ****       120.7500 142.7500 159.0000 Du        
   5072 ****       120.7500 142.7500 159.2500 Du        
   5073 ****       120.7500 142.7500 159.5000 Du        
   5074 ****       120.7500 142.7500 159.7500 Du        
   5075 ****       120.7500 142.7500 160.0000 Du        
   5076 ****       120.7500 142.7500 160.2500 Du        
   5077 ****       120.7500 143.0000 157.2500 Du        
   5078 ****       120.7500 143.0000 157.5000 Du        
   5079 ****       120.7500 143.0000 157.7500 Du        
   5080 ****       120.7500 143.0000 158.0000 Du        
   5081 ****       120.7500 143.0000 158.2500 Du        
   5082 ****       120.7500 143.0000 158.5000 Du        
   5083 ****       120.7500 143.0000 158.7500 Du        
   5084 ****       120.7500 143.0000 159.0000 Du        
   5085 ****       120.7500 143.0000 159.2500 Du        
   5086 ****       120.7500 143.0000 159.5000 Du        
   5087 ****       120.7500 143.0000 159.7500 Du        
   5088 ****       120.7500 143.0000 160.0000 Du        
   5089 ****       120.7500 143.0000 160.2500 Du        
   5090 ****       120.7500 143.0000 160.5000 Du        
   5091 ****       120.7500 143.2500 157.2500 Du        
   5092 ****       120.7500 143.2500 157.5000 Du        
   5093 ****       120.7500 143.2500 157.7500 Du        
   5094 ****       120.7500 143.2500 158.0000 Du        
   5095 ****       120.7500 143.2500 158.2500 Du        
   5096 ****       120.7500 143.2500 158.5000 Du        
   5097 ****       120.7500 143.2500 158.7500 Du        
   5098 ****       120.7500 143.2500 159.0000 Du        
   5099 ****       120.7500 143.2500 159.2500 Du        
   5100 ****       120.7500 143.2500 159.5000 Du        
   5101 ****       120.7500 143.2500 159.7500 Du        
   5102 ****       120.7500 143.2500 160.0000 Du        
   5103 ****       120.7500 143.2500 160.2500 Du        
   5104 ****       120.7500 143.2500 160.5000 Du        
   5105 ****       120.7500 143.5000 157.5000 Du        
   5106 ****       120.7500 143.5000 157.7500 Du        
   5107 ****       120.7500 143.5000 158.0000 Du        
   5108 ****       120.7500 143.5000 158.2500 Du        
   5109 ****       120.7500 143.5000 158.5000 Du        
   5110 ****       120.7500 143.5000 158.7500 Du        
   5111 ****       120.7500 143.5000 159.0000 Du        
   5112 ****       120.7500 143.5000 159.2500 Du        
   5113 ****       120.7500 143.5000 159.5000 Du        
   5114 ****       120.7500 143.5000 159.7500 Du        
   5115 ****       120.7500 143.5000 160.0000 Du        
   5116 ****       120.7500 143.5000 160.2500 Du        
   5117 ****       120.7500 143.5000 160.5000 Du        
   5118 ****       120.7500 143.5000 160.7500 Du        
   5119 ****       120.7500 143.7500 157.7500 Du        
   5120 ****       120.7500 143.7500 158.0000 Du        
   5121 ****       120.7500 143.7500 158.2500 Du        
   5122 ****       120.7500 143.7500 158.5000 Du        
   5123 ****       120.7500 143.7500 158.7500 Du        
   5124 ****       120.7500 143.7500 159.0000 Du        
   5125 ****       120.7500 143.7500 159.2500 Du        
   5126 ****       120.7500 143.7500 159.5000 Du        
   5127 ****       120.7500 143.7500 159.7500 Du        
   5128 ****       120.7500 144.5000 128.2500 Du        
   5129 ****       120.7500 144.5000 128.5000 Du        
   5130 ****       120.7500 144.7500 128.2500 Du        
   5131 ****       120.7500 144.7500 128.5000 Du        
   5132 ****       120.7500 144.7500 128.7500 Du        
   5133 ****       120.7500 145.0000 128.2500 Du        
   5134 ****       120.7500 145.0000 128.5000 Du        
   5135 ****       120.7500 145.0000 128.7500 Du        
   5136 ****       120.7500 145.0000 129.0000 Du        
   5137 ****       120.7500 146.5000 112.5000 Du        
   5138 ****       120.7500 146.5000 112.7500 Du        
   5139 ****       120.7500 146.5000 113.0000 Du        
   5140 ****       120.7500 146.7500 112.2500 Du        
   5141 ****       120.7500 146.7500 112.5000 Du        
   5142 ****       120.7500 146.7500 112.7500 Du        
   5143 ****       120.7500 146.7500 113.0000 Du        
   5144 ****       120.7500 146.7500 113.2500 Du        
   5145 ****       120.7500 147.0000 112.0000 Du        
   5146 ****       120.7500 147.0000 112.2500 Du        
   5147 ****       120.7500 147.0000 112.5000 Du        
   5148 ****       120.7500 147.0000 112.7500 Du        
   5149 ****       120.7500 147.0000 113.0000 Du        
   5150 ****       120.7500 147.0000 113.2500 Du        
   5151 ****       120.7500 147.2500 111.7500 Du        
   5152 ****       120.7500 147.2500 112.0000 Du        
   5153 ****       120.7500 147.2500 112.2500 Du        
   5154 ****       120.7500 147.2500 112.5000 Du        
   5155 ****       120.7500 147.2500 112.7500 Du        
   5156 ****       120.7500 147.2500 113.0000 Du        
   5157 ****       120.7500 147.2500 113.2500 Du        
   5158 ****       120.7500 147.5000 111.2500 Du        
   5159 ****       120.7500 147.5000 111.5000 Du        
   5160 ****       120.7500 147.5000 111.7500 Du        
   5161 ****       120.7500 147.5000 112.0000 Du        
   5162 ****       120.7500 147.5000 112.2500 Du        
   5163 ****       120.7500 147.5000 112.5000 Du        
   5164 ****       120.7500 147.5000 112.7500 Du        
   5165 ****       120.7500 147.5000 113.0000 Du        
   5166 ****       120.7500 147.7500 111.0000 Du        
   5167 ****       120.7500 147.7500 111.2500 Du        
   5168 ****       120.7500 147.7500 111.5000 Du        
   5169 ****       120.7500 147.7500 111.7500 Du        
   5170 ****       120.7500 147.7500 112.0000 Du        
   5171 ****       120.7500 147.7500 112.2500 Du        
   5172 ****       120.7500 147.7500 112.5000 Du        
   5173 ****       120.7500 148.0000 110.5000 Du        
   5174 ****       120.7500 148.0000 110.7500 Du        
   5175 ****       120.7500 148.0000 111.0000 Du        
   5176 ****       120.7500 148.0000 111.2500 Du        
   5177 ****       120.7500 148.0000 111.5000 Du        
   5178 ****       120.7500 148.0000 111.7500 Du        
   5179 ****       120.7500 148.0000 112.0000 Du        
   5180 ****       120.7500 148.0000 112.2500 Du        
   5181 ****       120.7500 148.0000 112.5000 Du        
   5182 ****       120.7500 148.2500 110.2500 Du        
   5183 ****       120.7500 148.2500 110.5000 Du        
   5184 ****       120.7500 148.2500 110.7500 Du        
   5185 ****       120.7500 148.2500 111.0000 Du        
   5186 ****       120.7500 148.2500 111.2500 Du        
   5187 ****       120.7500 148.2500 111.5000 Du        
   5188 ****       120.7500 148.2500 111.7500 Du        
   5189 ****       120.7500 148.2500 112.0000 Du        
   5190 ****       120.7500 148.2500 112.2500 Du        
   5191 ****       120.7500 148.5000 110.0000 Du        
   5192 ****       120.7500 148.5000 110.2500 Du        
   5193 ****       120.7500 148.5000 110.5000 Du        
   5194 ****       120.7500 148.5000 110.7500 Du        
   5195 ****       120.7500 148.5000 111.0000 Du        
   5196 ****       120.7500 148.5000 111.2500 Du        
   5197 ****       120.7500 148.5000 111.5000 Du        
   5198 ****       120.7500 148.7500 110.0000 Du        
   5199 ****       120.7500 148.7500 110.2500 Du        
   5200 ****       120.7500 148.7500 110.5000 Du        
   5201 ****       120.7500 148.7500 110.7500 Du        
   5202 ****       120.7500 148.7500 111.0000 Du        
   5203 ****       120.7500 148.7500 111.2500 Du        
   5204 ****       120.7500 149.0000 110.0000 Du        
   5205 ****       120.7500 149.0000 110.2500 Du        
   5206 ****       120.7500 149.7500 108.2500 Du        
   5207 ****       120.7500 149.7500 108.5000 Du        
   5208 ****       120.7500 149.7500 108.7500 Du        
   5209 ****       120.7500 150.0000 108.2500 Du        
   5210 ****       120.7500 150.0000 108.5000 Du        
   5211 ****       120.7500 150.0000 108.7500 Du        
   5212 ****       120.7500 150.2500 108.2500 Du        
   5213 ****       120.7500 150.2500 108.5000 Du        
   5214 ****       120.7500 150.5000 108.2500 Du        
   5215 ****       120.7500 150.7500 108.2500 Du        
   5216 ****       120.7500 154.2500  90.0000 Du        
   5217 ****       120.7500 154.2500  90.2500 Du        
   5218 ****       120.7500 154.5000  89.5000 Du        
   5219 ****       120.7500 154.5000  89.7500 Du        
   5220 ****       120.7500 154.5000  90.0000 Du        
   5221 ****       120.7500 154.5000  90.2500 Du        
   5222 ****       120.7500 154.7500  89.0000 Du        
   5223 ****       120.7500 154.7500  89.2500 Du        
   5224 ****       120.7500 154.7500  89.5000 Du        
   5225 ****       120.7500 154.7500  89.7500 Du        
   5226 ****       120.7500 154.7500  90.0000 Du        
   5227 ****       120.7500 154.7500  90.2500 Du        
   5228 ****       120.7500 154.7500  97.0000 Du        
   5229 ****       120.7500 154.7500  97.2500 Du        
   5230 ****       120.7500 154.7500  97.5000 Du        
   5231 ****       120.7500 155.0000  88.7500 Du        
   5232 ****       120.7500 155.0000  89.0000 Du        
   5233 ****       120.7500 155.0000  89.2500 Du        
   5234 ****       120.7500 155.0000  89.5000 Du        
   5235 ****       120.7500 155.0000  89.7500 Du        
   5236 ****       120.7500 155.0000  90.0000 Du        
   5237 ****       120.7500 155.0000  90.2500 Du        
   5238 ****       120.7500 155.0000  97.0000 Du        
   5239 ****       120.7500 155.0000  97.2500 Du        
   5240 ****       120.7500 155.0000  97.5000 Du        
   5241 ****       120.7500 155.0000  97.7500 Du        
   5242 ****       120.7500 155.0000  98.0000 Du        
   5243 ****       120.7500 155.2500  88.7500 Du        
   5244 ****       120.7500 155.2500  89.0000 Du        
   5245 ****       120.7500 155.2500  89.2500 Du        
   5246 ****       120.7500 155.2500  89.5000 Du        
   5247 ****       120.7500 155.2500  89.7500 Du        
   5248 ****       120.7500 155.2500  90.0000 Du        
   5249 ****       120.7500 155.2500  90.2500 Du        
   5250 ****       120.7500 155.2500  97.0000 Du        
   5251 ****       120.7500 155.2500  97.2500 Du        
   5252 ****       120.7500 155.2500  97.5000 Du        
   5253 ****       120.7500 155.2500  97.7500 Du        
   5254 ****       120.7500 155.2500  98.0000 Du        
   5255 ****       120.7500 155.2500  98.2500 Du        
   5256 ****       120.7500 155.5000  98.0000 Du        
   5257 ****       120.7500 155.7500  98.7500 Du        
   5258 ****       120.7500 162.7500 165.0000 Du        
   5259 ****       120.7500 162.7500 165.2500 Du        
   5260 ****       120.7500 163.0000 164.5000 Du        
   5261 ****       120.7500 163.0000 164.7500 Du        
   5262 ****       120.7500 163.0000 165.0000 Du        
   5263 ****       120.7500 163.0000 165.2500 Du        
   5264 ****       120.7500 163.0000 165.5000 Du        
   5265 ****       120.7500 163.0000 165.7500 Du        
   5266 ****       120.7500 163.2500 164.2500 Du        
   5267 ****       120.7500 163.2500 164.5000 Du        
   5268 ****       120.7500 163.2500 164.7500 Du        
   5269 ****       120.7500 163.2500 165.0000 Du        
   5270 ****       120.7500 163.2500 165.2500 Du        
   5271 ****       120.7500 163.2500 165.5000 Du        
   5272 ****       120.7500 163.2500 165.7500 Du        
   5273 ****       120.7500 163.2500 166.0000 Du        
   5274 ****       120.7500 163.2500 166.2500 Du        
   5275 ****       120.7500 163.5000 164.0000 Du        
   5276 ****       120.7500 163.5000 164.2500 Du        
   5277 ****       120.7500 163.5000 164.5000 Du        
   5278 ****       120.7500 163.5000 164.7500 Du        
   5279 ****       120.7500 163.5000 165.0000 Du        
   5280 ****       120.7500 163.5000 165.2500 Du        
   5281 ****       120.7500 163.5000 165.5000 Du        
   5282 ****       120.7500 163.5000 165.7500 Du        
   5283 ****       120.7500 163.5000 166.0000 Du        
   5284 ****       120.7500 163.5000 166.2500 Du        
   5285 ****       120.7500 163.5000 166.5000 Du        
   5286 ****       120.7500 163.5000 166.7500 Du        
   5287 ****       120.7500 163.7500 164.0000 Du        
   5288 ****       120.7500 163.7500 164.2500 Du        
   5289 ****       120.7500 163.7500 164.5000 Du        
   5290 ****       120.7500 163.7500 164.7500 Du        
   5291 ****       120.7500 163.7500 165.0000 Du        
   5292 ****       120.7500 163.7500 165.2500 Du        
   5293 ****       120.7500 163.7500 165.5000 Du        
   5294 ****       120.7500 163.7500 165.7500 Du        
   5295 ****       120.7500 163.7500 166.0000 Du        
   5296 ****       120.7500 163.7500 166.2500 Du        
   5297 ****       120.7500 163.7500 166.5000 Du        
   5298 ****       120.7500 163.7500 166.7500 Du        
   5299 ****       120.7500 163.7500 167.0000 Du        
   5300 ****       120.7500 164.0000 164.0000 Du        
   5301 ****       120.7500 164.0000 164.2500 Du        
   5302 ****       120.7500 164.0000 164.5000 Du        
   5303 ****       120.7500 164.0000 164.7500 Du        
   5304 ****       120.7500 164.0000 165.0000 Du        
   5305 ****       120.7500 164.0000 165.2500 Du        
   5306 ****       120.7500 164.0000 165.5000 Du        
   5307 ****       120.7500 164.0000 165.7500 Du        
   5308 ****       120.7500 164.0000 166.0000 Du        
   5309 ****       120.7500 164.0000 166.2500 Du        
   5310 ****       120.7500 164.0000 166.5000 Du        
   5311 ****       120.7500 164.0000 166.7500 Du        
   5312 ****       120.7500 164.0000 167.0000 Du        
   5313 ****       120.7500 164.2500 164.2500 Du        
   5314 ****       120.7500 164.2500 164.5000 Du        
   5315 ****       120.7500 164.2500 164.7500 Du        
   5316 ****       120.7500 164.2500 165.0000 Du        
   5317 ****       120.7500 164.2500 165.2500 Du        
   5318 ****       120.7500 164.2500 165.5000 Du        
   5319 ****       120.7500 164.2500 165.7500 Du        
   5320 ****       120.7500 164.2500 166.0000 Du        
   5321 ****       120.7500 164.2500 166.2500 Du        
   5322 ****       120.7500 164.2500 166.5000 Du        
   5323 ****       120.7500 164.2500 166.7500 Du        
   5324 ****       120.7500 164.2500 167.0000 Du        
   5325 ****       120.7500 164.5000 164.5000 Du        
   5326 ****       120.7500 164.5000 164.7500 Du        
   5327 ****       120.7500 164.5000 165.0000 Du        
   5328 ****       120.7500 164.5000 165.2500 Du        
   5329 ****       120.7500 164.5000 165.5000 Du        
   5330 ****       120.7500 164.5000 165.7500 Du        
   5331 ****       120.7500 164.5000 166.0000 Du        
   5332 ****       120.7500 164.5000 166.2500 Du        
   5333 ****       120.7500 164.5000 166.5000 Du        
   5334 ****       120.7500 164.5000 166.7500 Du        
   5335 ****       120.7500 164.5000 167.0000 Du        
   5336 ****       120.7500 164.7500 165.2500 Du        
   5337 ****       120.7500 164.7500 165.5000 Du        
   5338 ****       120.7500 164.7500 165.7500 Du        
   5339 ****       120.7500 164.7500 166.0000 Du        
   5340 ****       120.7500 164.7500 166.2500 Du        
   5341 ****       120.7500 164.7500 166.5000 Du        
   5342 ****       120.7500 165.0000 165.5000 Du        
   5343 ****       120.7500 165.0000 165.7500 Du        
   5344 ****       120.7500 165.0000 166.0000 Du        
   5345 ****       120.7500 165.0000 166.2500 Du        
   5346 ****       120.7500 165.0000 166.5000 Du        
   5347 ****       121.0000 121.2500 164.7500 Du        
   5348 ****       121.0000 121.2500 165.0000 Du        
   5349 ****       121.0000 121.5000 165.0000 Du        
   5350 ****       121.0000 126.0000 104.5000 Du        
   5351 ****       121.0000 126.0000 104.7500 Du        
   5352 ****       121.0000 126.0000 105.0000 Du        
   5353 ****       121.0000 126.0000 105.2500 Du        
   5354 ****       121.0000 126.0000 105.5000 Du        
   5355 ****       121.0000 126.0000 105.7500 Du        
   5356 ****       121.0000 126.2500 104.2500 Du        
   5357 ****       121.0000 126.2500 104.5000 Du        
   5358 ****       121.0000 126.2500 104.7500 Du        
   5359 ****       121.0000 126.2500 105.0000 Du        
   5360 ****       121.0000 126.2500 105.2500 Du        
   5361 ****       121.0000 126.2500 105.5000 Du        
   5362 ****       121.0000 126.5000 104.0000 Du        
   5363 ****       121.0000 126.5000 104.2500 Du        
   5364 ****       121.0000 126.5000 104.5000 Du        
   5365 ****       121.0000 126.5000 104.7500 Du        
   5366 ****       121.0000 126.5000 105.0000 Du        
   5367 ****       121.0000 126.5000 105.2500 Du        
   5368 ****       121.0000 126.5000 105.5000 Du        
   5369 ****       121.0000 126.7500  95.7500 Du        
   5370 ****       121.0000 126.7500  96.0000 Du        
   5371 ****       121.0000 126.7500  96.2500 Du        
   5372 ****       121.0000 126.7500  96.5000 Du        
   5373 ****       121.0000 126.7500  96.7500 Du        
   5374 ****       121.0000 126.7500  97.0000 Du        
   5375 ****       121.0000 126.7500  97.2500 Du        
   5376 ****       121.0000 126.7500 104.0000 Du        
   5377 ****       121.0000 126.7500 104.2500 Du        
   5378 ****       121.0000 126.7500 104.5000 Du        
   5379 ****       121.0000 126.7500 104.7500 Du        
   5380 ****       121.0000 126.7500 105.0000 Du        
   5381 ****       121.0000 126.7500 105.2500 Du        
   5382 ****       121.0000 127.0000  95.7500 Du        
   5383 ****       121.0000 127.0000  96.0000 Du        
   5384 ****       121.0000 127.0000  96.2500 Du        
   5385 ****       121.0000 127.0000  96.5000 Du        
   5386 ****       121.0000 127.0000  96.7500 Du        
   5387 ****       121.0000 127.0000  97.0000 Du        
   5388 ****       121.0000 127.0000  97.2500 Du        
   5389 ****       121.0000 127.0000  97.5000 Du        
   5390 ****       121.0000 127.0000  97.7500 Du        
   5391 ****       121.0000 127.0000 104.2500 Du        
   5392 ****       121.0000 127.0000 104.5000 Du        
   5393 ****       121.0000 127.0000 104.7500 Du        
   5394 ****       121.0000 127.0000 105.0000 Du        
   5395 ****       121.0000 127.0000 105.2500 Du        
   5396 ****       121.0000 127.2500  95.5000 Du        
   5397 ****       121.0000 127.2500  95.7500 Du        
   5398 ****       121.0000 127.2500  96.0000 Du        
   5399 ****       121.0000 127.2500  96.2500 Du        
   5400 ****       121.0000 127.2500  96.5000 Du        
   5401 ****       121.0000 127.2500  96.7500 Du        
   5402 ****       121.0000 127.2500  97.0000 Du        
   5403 ****       121.0000 127.2500  97.2500 Du        
   5404 ****       121.0000 127.2500  97.5000 Du        
   5405 ****       121.0000 127.2500  97.7500 Du        
   5406 ****       121.0000 127.2500 104.2500 Du        
   5407 ****       121.0000 127.2500 104.5000 Du        
   5408 ****       121.0000 127.2500 104.7500 Du        
   5409 ****       121.0000 127.2500 105.0000 Du        
   5410 ****       121.0000 127.2500 105.2500 Du        
   5411 ****       121.0000 127.5000  95.5000 Du        
   5412 ****       121.0000 127.5000  95.7500 Du        
   5413 ****       121.0000 127.5000  96.0000 Du        
   5414 ****       121.0000 127.5000  96.2500 Du        
   5415 ****       121.0000 127.5000  96.5000 Du        
   5416 ****       121.0000 127.5000  96.7500 Du        
   5417 ****       121.0000 127.5000  97.0000 Du        
   5418 ****       121.0000 127.5000  97.2500 Du        
   5419 ****       121.0000 127.5000  97.5000 Du        
   5420 ****       121.0000 127.5000  97.7500 Du        
   5421 ****       121.0000 127.5000 104.5000 Du        
   5422 ****       121.0000 127.5000 104.7500 Du        
   5423 ****       121.0000 127.5000 105.0000 Du        
   5424 ****       121.0000 127.7500  95.7500 Du        
   5425 ****       121.0000 127.7500  96.0000 Du        
   5426 ****       121.0000 127.7500  96.2500 Du        
   5427 ****       121.0000 127.7500  96.5000 Du        
   5428 ****       121.0000 127.7500  96.7500 Du        
   5429 ****       121.0000 127.7500  97.0000 Du        
   5430 ****       121.0000 127.7500  97.2500 Du        
   5431 ****       121.0000 127.7500  97.5000 Du        
   5432 ****       121.0000 127.7500  97.7500 Du        
   5433 ****       121.0000 127.7500 104.7500 Du        
   5434 ****       121.0000 128.0000  96.7500 Du        
   5435 ****       121.0000 128.0000  97.0000 Du        
   5436 ****       121.0000 131.5000 161.7500 Du        
   5437 ****       121.0000 131.7500 161.5000 Du        
   5438 ****       121.0000 131.7500 161.7500 Du        
   5439 ****       121.0000 131.7500 162.0000 Du        
   5440 ****       121.0000 132.0000 161.7500 Du        
   5441 ****       121.0000 133.7500 138.7500 Du        
   5442 ****       121.0000 133.7500 139.0000 Du        
   5443 ****       121.0000 133.7500 139.2500 Du        
   5444 ****       121.0000 134.0000 137.7500 Du        
   5445 ****       121.0000 134.0000 138.0000 Du        
   5446 ****       121.0000 134.0000 138.2500 Du        
   5447 ****       121.0000 134.0000 138.5000 Du        
   5448 ****       121.0000 134.0000 138.7500 Du        
   5449 ****       121.0000 134.0000 139.0000 Du        
   5450 ****       121.0000 134.0000 139.2500 Du        
   5451 ****       121.0000 134.2500 137.2500 Du        
   5452 ****       121.0000 134.2500 137.5000 Du        
   5453 ****       121.0000 134.2500 137.7500 Du        
   5454 ****       121.0000 134.2500 138.0000 Du        
   5455 ****       121.0000 134.2500 138.2500 Du        
   5456 ****       121.0000 134.2500 138.5000 Du        
   5457 ****       121.0000 134.2500 138.7500 Du        
   5458 ****       121.0000 134.2500 139.0000 Du        
   5459 ****       121.0000 134.2500 139.2500 Du        
   5460 ****       121.0000 134.5000 137.0000 Du        
   5461 ****       121.0000 134.5000 137.2500 Du        
   5462 ****       121.0000 134.5000 137.5000 Du        
   5463 ****       121.0000 134.5000 137.7500 Du        
   5464 ****       121.0000 134.5000 138.0000 Du        
   5465 ****       121.0000 134.5000 138.2500 Du        
   5466 ****       121.0000 134.7500 137.0000 Du        
   5467 ****       121.0000 134.7500 137.2500 Du        
   5468 ****       121.0000 134.7500 137.5000 Du        
   5469 ****       121.0000 134.7500 137.7500 Du        
   5470 ****       121.0000 134.7500 138.0000 Du        
   5471 ****       121.0000 142.7500 159.0000 Du        
   5472 ****       121.0000 142.7500 159.2500 Du        
   5473 ****       121.0000 142.7500 159.5000 Du        
   5474 ****       121.0000 142.7500 159.7500 Du        
   5475 ****       121.0000 142.7500 160.0000 Du        
   5476 ****       121.0000 142.7500 160.2500 Du        
   5477 ****       121.0000 143.0000 158.0000 Du        
   5478 ****       121.0000 143.0000 158.2500 Du        
   5479 ****       121.0000 143.0000 158.5000 Du        
   5480 ****       121.0000 143.0000 158.7500 Du        
   5481 ****       121.0000 143.0000 159.0000 Du        
   5482 ****       121.0000 143.0000 159.2500 Du        
   5483 ****       121.0000 143.0000 159.5000 Du        
   5484 ****       121.0000 143.0000 159.7500 Du        
   5485 ****       121.0000 143.0000 160.0000 Du        
   5486 ****       121.0000 143.0000 160.2500 Du        
   5487 ****       121.0000 143.2500 157.7500 Du        
   5488 ****       121.0000 143.2500 158.0000 Du        
   5489 ****       121.0000 143.2500 158.2500 Du        
   5490 ****       121.0000 143.2500 158.5000 Du        
   5491 ****       121.0000 143.2500 158.7500 Du        
   5492 ****       121.0000 143.2500 159.0000 Du        
   5493 ****       121.0000 143.2500 159.2500 Du        
   5494 ****       121.0000 143.2500 159.5000 Du        
   5495 ****       121.0000 143.2500 159.7500 Du        
   5496 ****       121.0000 143.2500 160.0000 Du        
   5497 ****       121.0000 143.2500 160.2500 Du        
   5498 ****       121.0000 143.2500 160.5000 Du        
   5499 ****       121.0000 143.5000 157.7500 Du        
   5500 ****       121.0000 143.5000 158.0000 Du        
   5501 ****       121.0000 143.5000 158.2500 Du        
   5502 ****       121.0000 143.5000 158.5000 Du        
   5503 ****       121.0000 143.5000 158.7500 Du        
   5504 ****       121.0000 143.5000 159.0000 Du        
   5505 ****       121.0000 143.5000 159.2500 Du        
   5506 ****       121.0000 143.5000 159.5000 Du        
   5507 ****       121.0000 143.5000 159.7500 Du        
   5508 ****       121.0000 143.5000 160.0000 Du        
   5509 ****       121.0000 143.5000 160.2500 Du        
   5510 ****       121.0000 143.5000 160.5000 Du        
   5511 ****       121.0000 143.7500 158.0000 Du        
   5512 ****       121.0000 143.7500 158.2500 Du        
   5513 ****       121.0000 143.7500 158.5000 Du        
   5514 ****       121.0000 143.7500 158.7500 Du        
   5515 ****       121.0000 143.7500 159.0000 Du        
   5516 ****       121.0000 143.7500 159.2500 Du        
   5517 ****       121.0000 143.7500 159.5000 Du        
   5518 ****       121.0000 143.7500 159.7500 Du        
   5519 ****       121.0000 144.0000 158.2500 Du        
   5520 ****       121.0000 144.0000 158.5000 Du        
   5521 ****       121.0000 144.0000 158.7500 Du        
   5522 ****       121.0000 144.2500 128.2500 Du        
   5523 ****       121.0000 144.2500 128.5000 Du        
   5524 ****       121.0000 144.5000 128.2500 Du        
   5525 ****       121.0000 144.5000 128.5000 Du        
   5526 ****       121.0000 144.7500 128.0000 Du        
   5527 ****       121.0000 144.7500 128.2500 Du        
   5528 ****       121.0000 144.7500 128.5000 Du        
   5529 ****       121.0000 144.7500 128.7500 Du        
   5530 ****       121.0000 144.7500 129.0000 Du        
   5531 ****       121.0000 145.0000 128.2500 Du        
   5532 ****       121.0000 145.0000 128.5000 Du        
   5533 ****       121.0000 145.0000 128.7500 Du        
   5534 ****       121.0000 145.0000 129.0000 Du        
   5535 ****       121.0000 145.2500 128.7500 Du        
   5536 ****       121.0000 145.2500 129.0000 Du        
   5537 ****       121.0000 146.7500 112.2500 Du        
   5538 ****       121.0000 147.0000 112.0000 Du        
   5539 ****       121.0000 147.0000 112.2500 Du        
   5540 ****       121.0000 147.0000 112.5000 Du        
   5541 ****       121.0000 147.0000 112.7500 Du        
   5542 ****       121.0000 147.2500 111.2500 Du        
   5543 ****       121.0000 147.2500 111.5000 Du        
   5544 ****       121.0000 147.2500 111.7500 Du        
   5545 ****       121.0000 147.2500 112.0000 Du        
   5546 ****       121.0000 147.2500 112.2500 Du        
   5547 ****       121.0000 147.5000 111.0000 Du        
   5548 ****       121.0000 147.5000 111.2500 Du        
   5549 ****       121.0000 147.5000 111.5000 Du        
   5550 ****       121.0000 147.5000 111.7500 Du        
   5551 ****       121.0000 147.5000 112.0000 Du        
   5552 ****       121.0000 147.7500 110.7500 Du        
   5553 ****       121.0000 147.7500 111.0000 Du        
   5554 ****       121.0000 147.7500 111.2500 Du        
   5555 ****       121.0000 147.7500 111.5000 Du        
   5556 ****       121.0000 147.7500 111.7500 Du        
   5557 ****       121.0000 147.7500 112.0000 Du        
   5558 ****       121.0000 148.0000 110.5000 Du        
   5559 ****       121.0000 148.0000 110.7500 Du        
   5560 ****       121.0000 148.0000 111.0000 Du        
   5561 ****       121.0000 148.0000 111.2500 Du        
   5562 ****       121.0000 148.0000 111.5000 Du        
   5563 ****       121.0000 148.0000 111.7500 Du        
   5564 ****       121.0000 148.0000 112.0000 Du        
   5565 ****       121.0000 148.2500 110.2500 Du        
   5566 ****       121.0000 148.2500 110.5000 Du        
   5567 ****       121.0000 148.2500 110.7500 Du        
   5568 ****       121.0000 148.2500 111.0000 Du        
   5569 ****       121.0000 148.2500 111.2500 Du        
   5570 ****       121.0000 148.2500 111.5000 Du        
   5571 ****       121.0000 148.2500 111.7500 Du        
   5572 ****       121.0000 148.5000 110.2500 Du        
   5573 ****       121.0000 148.5000 110.5000 Du        
   5574 ****       121.0000 148.5000 110.7500 Du        
   5575 ****       121.0000 148.5000 111.0000 Du        
   5576 ****       121.0000 148.5000 111.2500 Du        
   5577 ****       121.0000 148.7500 110.2500 Du        
   5578 ****       121.0000 148.7500 110.7500 Du        
   5579 ****       121.0000 148.7500 111.0000 Du        
   5580 ****       121.0000 148.7500 111.2500 Du        
   5581 ****       121.0000 152.2500 108.2500 Du        
   5582 ****       121.0000 152.7500 108.2500 Du        
   5583 ****       121.0000 154.7500  97.0000 Du        
   5584 ****       121.0000 154.7500  97.2500 Du        
   5585 ****       121.0000 154.7500  97.5000 Du        
   5586 ****       121.0000 154.7500  97.7500 Du        
   5587 ****       121.0000 155.0000  97.0000 Du        
   5588 ****       121.0000 155.0000  97.2500 Du        
   5589 ****       121.0000 155.0000  97.5000 Du        
   5590 ****       121.0000 155.0000  97.7500 Du        
   5591 ****       121.0000 155.0000  98.0000 Du        
   5592 ****       121.0000 155.0000  98.2500 Du        
   5593 ****       121.0000 155.2500  97.0000 Du        
   5594 ****       121.0000 155.2500  97.2500 Du        
   5595 ****       121.0000 155.2500  97.5000 Du        
   5596 ****       121.0000 155.2500  97.7500 Du        
   5597 ****       121.0000 155.2500  98.0000 Du        
   5598 ****       121.0000 155.2500  98.2500 Du        
   5599 ****       121.0000 155.2500  98.5000 Du        
   5600 ****       121.0000 155.5000  97.5000 Du        
   5601 ****       121.0000 155.5000  97.7500 Du        
   5602 ****       121.0000 155.5000  98.0000 Du        
   5603 ****       121.0000 155.5000  98.2500 Du        
   5604 ****       121.0000 155.5000  98.5000 Du        
   5605 ****       121.0000 155.7500  98.0000 Du        
   5606 ****       121.0000 155.7500  98.2500 Du        
   5607 ****       121.0000 155.7500  98.5000 Du        
   5608 ****       121.0000 155.7500  98.7500 Du        
   5609 ****       121.0000 156.0000  98.5000 Du        
   5610 ****       121.0000 162.5000 164.7500 Du        
   5611 ****       121.0000 162.5000 165.0000 Du        
   5612 ****       121.0000 162.5000 165.2500 Du        
   5613 ****       121.0000 162.7500 164.5000 Du        
   5614 ****       121.0000 162.7500 164.7500 Du        
   5615 ****       121.0000 162.7500 165.0000 Du        
   5616 ****       121.0000 162.7500 165.2500 Du        
   5617 ****       121.0000 162.7500 165.5000 Du        
   5618 ****       121.0000 163.0000 164.2500 Du        
   5619 ****       121.0000 163.0000 164.5000 Du        
   5620 ****       121.0000 163.0000 164.7500 Du        
   5621 ****       121.0000 163.0000 165.0000 Du        
   5622 ****       121.0000 163.0000 165.2500 Du        
   5623 ****       121.0000 163.0000 165.5000 Du        
   5624 ****       121.0000 163.0000 165.7500 Du        
   5625 ****       121.0000 163.2500 164.0000 Du        
   5626 ****       121.0000 163.2500 164.2500 Du        
   5627 ****       121.0000 163.2500 164.5000 Du        
   5628 ****       121.0000 163.2500 164.7500 Du        
   5629 ****       121.0000 163.2500 165.0000 Du        
   5630 ****       121.0000 163.2500 165.2500 Du        
   5631 ****       121.0000 163.2500 165.5000 Du        
   5632 ****       121.0000 163.2500 165.7500 Du        
   5633 ****       121.0000 163.2500 166.0000 Du        
   5634 ****       121.0000 163.2500 166.2500 Du        
   5635 ****       121.0000 163.5000 164.0000 Du        
   5636 ****       121.0000 163.5000 164.2500 Du        
   5637 ****       121.0000 163.5000 164.5000 Du        
   5638 ****       121.0000 163.5000 164.7500 Du        
   5639 ****       121.0000 163.5000 165.0000 Du        
   5640 ****       121.0000 163.5000 165.2500 Du        
   5641 ****       121.0000 163.5000 165.5000 Du        
   5642 ****       121.0000 163.5000 165.7500 Du        
   5643 ****       121.0000 163.5000 166.0000 Du        
   5644 ****       121.0000 163.5000 166.2500 Du        
   5645 ****       121.0000 163.5000 166.5000 Du        
   5646 ****       121.0000 163.5000 166.7500 Du        
   5647 ****       121.0000 163.7500 164.0000 Du        
   5648 ****       121.0000 163.7500 164.2500 Du        
   5649 ****       121.0000 163.7500 164.5000 Du        
   5650 ****       121.0000 163.7500 164.7500 Du        
   5651 ****       121.0000 163.7500 165.0000 Du        
   5652 ****       121.0000 163.7500 165.2500 Du        
   5653 ****       121.0000 163.7500 165.5000 Du        
   5654 ****       121.0000 163.7500 165.7500 Du        
   5655 ****       121.0000 163.7500 166.0000 Du        
   5656 ****       121.0000 163.7500 166.2500 Du        
   5657 ****       121.0000 163.7500 166.5000 Du        
   5658 ****       121.0000 163.7500 166.7500 Du        
   5659 ****       121.0000 163.7500 167.0000 Du        
   5660 ****       121.0000 164.0000 164.0000 Du        
   5661 ****       121.0000 164.0000 164.2500 Du        
   5662 ****       121.0000 164.0000 164.5000 Du        
   5663 ****       121.0000 164.0000 164.7500 Du        
   5664 ****       121.0000 164.0000 165.0000 Du        
   5665 ****       121.0000 164.0000 165.2500 Du        
   5666 ****       121.0000 164.0000 165.5000 Du        
   5667 ****       121.0000 164.0000 165.7500 Du        
   5668 ****       121.0000 164.0000 166.0000 Du        
   5669 ****       121.0000 164.0000 166.2500 Du        
   5670 ****       121.0000 164.0000 166.5000 Du        
   5671 ****       121.0000 164.0000 166.7500 Du        
   5672 ****       121.0000 164.0000 167.0000 Du        
   5673 ****       121.0000 164.2500 164.0000 Du        
   5674 ****       121.0000 164.2500 164.2500 Du        
   5675 ****       121.0000 164.2500 164.5000 Du        
   5676 ****       121.0000 164.2500 164.7500 Du        
   5677 ****       121.0000 164.2500 165.0000 Du        
   5678 ****       121.0000 164.2500 165.2500 Du        
   5679 ****       121.0000 164.2500 165.5000 Du        
   5680 ****       121.0000 164.2500 165.7500 Du        
   5681 ****       121.0000 164.2500 166.0000 Du        
   5682 ****       121.0000 164.2500 166.2500 Du        
   5683 ****       121.0000 164.2500 166.5000 Du        
   5684 ****       121.0000 164.2500 166.7500 Du        
   5685 ****       121.0000 164.2500 167.0000 Du        
   5686 ****       121.0000 164.5000 164.5000 Du        
   5687 ****       121.0000 164.5000 164.7500 Du        
   5688 ****       121.0000 164.5000 165.0000 Du        
   5689 ****       121.0000 164.5000 165.2500 Du        
   5690 ****       121.0000 164.5000 165.5000 Du        
   5691 ****       121.0000 164.5000 165.7500 Du        
   5692 ****       121.0000 164.5000 166.0000 Du        
   5693 ****       121.0000 164.5000 166.2500 Du        
   5694 ****       121.0000 164.5000 166.5000 Du        
   5695 ****       121.0000 164.5000 166.7500 Du        
   5696 ****       121.0000 164.5000 167.0000 Du        
   5697 ****       121.0000 164.7500 164.7500 Du        
   5698 ****       121.0000 164.7500 165.0000 Du        
   5699 ****       121.0000 164.7500 165.2500 Du        
   5700 ****       121.0000 164.7500 165.5000 Du        
   5701 ****       121.0000 164.7500 165.7500 Du        
   5702 ****       121.0000 164.7500 166.0000 Du        
   5703 ****       121.0000 164.7500 166.2500 Du        
   5704 ****       121.0000 164.7500 166.5000 Du        
   5705 ****       121.0000 165.0000 165.0000 Du        
   5706 ****       121.0000 165.0000 165.2500 Du        
   5707 ****       121.0000 165.0000 165.5000 Du        
   5708 ****       121.0000 165.0000 165.7500 Du        
   5709 ****       121.0000 165.0000 166.0000 Du        
   5710 ****       121.0000 165.0000 166.2500 Du        
   5711 ****       121.0000 165.0000 166.5000 Du        
   5712 ****       121.0000 165.2500 165.7500 Du        
   5713 ****       121.0000 165.2500 166.0000 Du        
   5714 ****       121.2500 121.2500 165.0000 Du        
   5715 ****       121.2500 126.0000 104.5000 Du        
   5716 ****       121.2500 126.0000 104.7500 Du        
   5717 ****       121.2500 126.0000 105.0000 Du        
   5718 ****       121.2500 126.2500 104.2500 Du        
   5719 ****       121.2500 126.2500 104.5000 Du        
   5720 ****       121.2500 126.2500 104.7500 Du        
   5721 ****       121.2500 126.2500 105.0000 Du        
   5722 ****       121.2500 126.2500 105.2500 Du        
   5723 ****       121.2500 126.5000  96.2500 Du        
   5724 ****       121.2500 126.5000 104.0000 Du        
   5725 ****       121.2500 126.5000 104.2500 Du        
   5726 ****       121.2500 126.5000 104.5000 Du        
   5727 ****       121.2500 126.5000 104.7500 Du        
   5728 ****       121.2500 126.5000 105.0000 Du        
   5729 ****       121.2500 126.5000 105.2500 Du        
   5730 ****       121.2500 126.7500  96.0000 Du        
   5731 ****       121.2500 126.7500  96.2500 Du        
   5732 ****       121.2500 126.7500  96.7500 Du        
   5733 ****       121.2500 126.7500  97.2500 Du        
   5734 ****       121.2500 126.7500 104.2500 Du        
   5735 ****       121.2500 126.7500 104.5000 Du        
   5736 ****       121.2500 126.7500 104.7500 Du        
   5737 ****       121.2500 126.7500 105.0000 Du        
   5738 ****       121.2500 126.7500 105.2500 Du        
   5739 ****       121.2500 127.0000  96.0000 Du        
   5740 ****       121.2500 127.0000  96.2500 Du        
   5741 ****       121.2500 127.0000  96.5000 Du        
   5742 ****       121.2500 127.0000  96.7500 Du        
   5743 ****       121.2500 127.0000  97.0000 Du        
   5744 ****       121.2500 127.0000  97.2500 Du        
   5745 ****       121.2500 127.0000  97.5000 Du        
   5746 ****       121.2500 127.0000  97.7500 Du        
   5747 ****       121.2500 127.0000 104.2500 Du        
   5748 ****       121.2500 127.0000 104.5000 Du        
   5749 ****       121.2500 127.0000 104.7500 Du        
   5750 ****       121.2500 127.0000 105.0000 Du        
   5751 ****       121.2500 127.2500  96.0000 Du        
   5752 ****       121.2500 127.2500  96.2500 Du        
   5753 ****       121.2500 127.2500  96.5000 Du        
   5754 ****       121.2500 127.2500  96.7500 Du        
   5755 ****       121.2500 127.2500  97.0000 Du        
   5756 ****       121.2500 127.2500  97.2500 Du        
   5757 ****       121.2500 127.2500  97.5000 Du        
   5758 ****       121.2500 127.2500  97.7500 Du        
   5759 ****       121.2500 127.2500 104.5000 Du        
   5760 ****       121.2500 127.2500 104.7500 Du        
   5761 ****       121.2500 127.2500 105.0000 Du        
   5762 ****       121.2500 127.5000  96.0000 Du        
   5763 ****       121.2500 127.5000  96.2500 Du        
   5764 ****       121.2500 127.5000  96.5000 Du        
   5765 ****       121.2500 127.5000  96.7500 Du        
   5766 ****       121.2500 127.5000  97.0000 Du        
   5767 ****       121.2500 127.5000  97.2500 Du        
   5768 ****       121.2500 127.5000  97.5000 Du        
   5769 ****       121.2500 127.5000  97.7500 Du        
   5770 ****       121.2500 127.7500  96.7500 Du        
   5771 ****       121.2500 127.7500  97.0000 Du        
   5772 ****       121.2500 131.5000 161.5000 Du        
   5773 ****       121.2500 131.5000 161.7500 Du        
   5774 ****       121.2500 131.5000 162.0000 Du        
   5775 ****       121.2500 131.7500 161.5000 Du        
   5776 ****       121.2500 131.7500 161.7500 Du        
   5777 ****       121.2500 131.7500 162.0000 Du        
   5778 ****       121.2500 132.0000 161.5000 Du        
   5779 ****       121.2500 132.0000 161.7500 Du        
   5780 ****       121.2500 132.0000 162.0000 Du        
   5781 ****       121.2500 134.0000 137.7500 Du        
   5782 ****       121.2500 134.0000 138.0000 Du        
   5783 ****       121.2500 134.0000 138.2500 Du        
   5784 ****       121.2500 134.0000 138.5000 Du        
   5785 ****       121.2500 134.0000 138.7500 Du        
   5786 ****       121.2500 134.0000 139.0000 Du        
   5787 ****       121.2500 134.0000 139.2500 Du        
   5788 ****       121.2500 134.2500 137.2500 Du        
   5789 ****       121.2500 134.2500 137.5000 Du        
   5790 ****       121.2500 134.2500 137.7500 Du        
   5791 ****       121.2500 134.2500 138.0000 Du        
   5792 ****       121.2500 134.2500 138.2500 Du        
   5793 ****       121.2500 134.2500 138.5000 Du        
   5794 ****       121.2500 134.2500 138.7500 Du        
   5795 ****       121.2500 134.2500 139.0000 Du        
   5796 ****       121.2500 134.5000 137.0000 Du        
   5797 ****       121.2500 134.5000 137.2500 Du        
   5798 ****       121.2500 134.5000 137.5000 Du        
   5799 ****       121.2500 134.5000 137.7500 Du        
   5800 ****       121.2500 134.5000 138.0000 Du        
   5801 ****       121.2500 134.5000 138.2500 Du        
   5802 ****       121.2500 134.7500 137.0000 Du        
   5803 ****       121.2500 134.7500 137.2500 Du        
   5804 ****       121.2500 134.7500 137.5000 Du        
   5805 ****       121.2500 134.7500 137.7500 Du        
   5806 ****       121.2500 134.7500 138.0000 Du        
   5807 ****       121.2500 142.7500 159.5000 Du        
   5808 ****       121.2500 142.7500 159.7500 Du        
   5809 ****       121.2500 142.7500 160.0000 Du        
   5810 ****       121.2500 143.0000 158.7500 Du        
   5811 ****       121.2500 143.0000 159.0000 Du        
   5812 ****       121.2500 143.0000 159.2500 Du        
   5813 ****       121.2500 143.0000 159.5000 Du        
   5814 ****       121.2500 143.0000 159.7500 Du        
   5815 ****       121.2500 143.0000 160.0000 Du        
   5816 ****       121.2500 143.0000 160.2500 Du        
   5817 ****       121.2500 143.2500 158.0000 Du        
   5818 ****       121.2500 143.2500 158.2500 Du        
   5819 ****       121.2500 143.2500 158.5000 Du        
   5820 ****       121.2500 143.2500 158.7500 Du        
   5821 ****       121.2500 143.2500 159.0000 Du        
   5822 ****       121.2500 143.2500 159.2500 Du        
   5823 ****       121.2500 143.2500 159.5000 Du        
   5824 ****       121.2500 143.2500 159.7500 Du        
   5825 ****       121.2500 143.2500 160.0000 Du        
   5826 ****       121.2500 143.2500 160.2500 Du        
   5827 ****       121.2500 143.5000 158.0000 Du        
   5828 ****       121.2500 143.5000 158.2500 Du        
   5829 ****       121.2500 143.5000 158.5000 Du        
   5830 ****       121.2500 143.5000 158.7500 Du        
   5831 ****       121.2500 143.5000 159.0000 Du        
   5832 ****       121.2500 143.5000 159.2500 Du        
   5833 ****       121.2500 143.5000 159.5000 Du        
   5834 ****       121.2500 143.5000 159.7500 Du        
   5835 ****       121.2500 143.5000 160.0000 Du        
   5836 ****       121.2500 143.5000 160.2500 Du        
   5837 ****       121.2500 143.7500 158.0000 Du        
   5838 ****       121.2500 143.7500 158.2500 Du        
   5839 ****       121.2500 143.7500 158.5000 Du        
   5840 ****       121.2500 143.7500 158.7500 Du        
   5841 ****       121.2500 143.7500 159.0000 Du        
   5842 ****       121.2500 143.7500 159.2500 Du        
   5843 ****       121.2500 143.7500 159.5000 Du        
   5844 ****       121.2500 143.7500 159.7500 Du        
   5845 ****       121.2500 144.0000 158.2500 Du        
   5846 ****       121.2500 144.0000 158.5000 Du        
   5847 ****       121.2500 144.0000 158.7500 Du        
   5848 ****       121.2500 144.0000 159.0000 Du        
   5849 ****       121.2500 144.2500 128.2500 Du        
   5850 ****       121.2500 144.2500 128.5000 Du        
   5851 ****       121.2500 144.5000 128.2500 Du        
   5852 ****       121.2500 144.5000 128.5000 Du        
   5853 ****       121.2500 144.5000 128.7500 Du        
   5854 ****       121.2500 144.7500 128.0000 Du        
   5855 ****       121.2500 144.7500 128.2500 Du        
   5856 ****       121.2500 144.7500 128.5000 Du        
   5857 ****       121.2500 144.7500 128.7500 Du        
   5858 ****       121.2500 144.7500 129.0000 Du        
   5859 ****       121.2500 145.0000 127.7500 Du        
   5860 ****       121.2500 145.0000 128.0000 Du        
   5861 ****       121.2500 145.0000 128.2500 Du        
   5862 ****       121.2500 145.0000 128.5000 Du        
   5863 ****       121.2500 145.0000 128.7500 Du        
   5864 ****       121.2500 145.0000 129.0000 Du        
   5865 ****       121.2500 145.0000 129.2500 Du        
   5866 ****       121.2500 145.2500 128.0000 Du        
   5867 ****       121.2500 145.2500 128.7500 Du        
   5868 ****       121.2500 145.2500 129.0000 Du        
   5869 ****       121.2500 147.5000 111.0000 Du        
   5870 ****       121.2500 147.5000 111.2500 Du        
   5871 ****       121.2500 147.7500 110.7500 Du        
   5872 ****       121.2500 147.7500 111.0000 Du        
   5873 ****       121.2500 147.7500 111.2500 Du        
   5874 ****       121.2500 148.0000 110.5000 Du        
   5875 ****       121.2500 148.0000 110.7500 Du        
   5876 ****       121.2500 148.0000 111.0000 Du        
   5877 ****       121.2500 148.0000 111.2500 Du        
   5878 ****       121.2500 148.2500 110.5000 Du        
   5879 ****       121.2500 148.2500 110.7500 Du        
   5880 ****       121.2500 148.2500 111.0000 Du        
   5881 ****       121.2500 148.2500 111.2500 Du        
   5882 ****       121.2500 148.5000 110.7500 Du        
   5883 ****       121.2500 148.5000 111.0000 Du        
   5884 ****       121.2500 148.5000 111.2500 Du        
   5885 ****       121.2500 152.7500 108.2500 Du        
   5886 ****       121.2500 153.0000 153.0000 Du        
   5887 ****       121.2500 154.7500  97.2500 Du        
   5888 ****       121.2500 154.7500  97.5000 Du        
   5889 ****       121.2500 154.7500  97.7500 Du        
   5890 ****       121.2500 154.7500  98.0000 Du        
   5891 ****       121.2500 155.0000  97.2500 Du        
   5892 ****       121.2500 155.0000  97.5000 Du        
   5893 ****       121.2500 155.0000  97.7500 Du        
   5894 ****       121.2500 155.0000  98.0000 Du        
   5895 ****       121.2500 155.0000  98.2500 Du        
   5896 ****       121.2500 155.0000  98.5000 Du        
   5897 ****       121.2500 155.2500  97.0000 Du        
   5898 ****       121.2500 155.2500  97.2500 Du        
   5899 ****       121.2500 155.2500  97.5000 Du        
   5900 ****       121.2500 155.2500  97.7500 Du        
   5901 ****       121.2500 155.2500  98.0000 Du        
   5902 ****       121.2500 155.2500  98.2500 Du        
   5903 ****       121.2500 155.2500  98.5000 Du        
   5904 ****       121.2500 155.2500  98.7500 Du        
   5905 ****       121.2500 155.5000  97.5000 Du        
   5906 ****       121.2500 155.5000  97.7500 Du        
   5907 ****       121.2500 155.5000  98.0000 Du        
   5908 ****       121.2500 155.5000  98.2500 Du        
   5909 ****       121.2500 155.5000  98.5000 Du        
   5910 ****       121.2500 155.5000  98.7500 Du        
   5911 ****       121.2500 155.7500  97.7500 Du        
   5912 ****       121.2500 155.7500  98.0000 Du        
   5913 ****       121.2500 155.7500  98.2500 Du        
   5914 ****       121.2500 155.7500  98.5000 Du        
   5915 ****       121.2500 155.7500  98.7500 Du        
   5916 ****       121.2500 155.7500  99.0000 Du        
   5917 ****       121.2500 156.0000  98.2500 Du        
   5918 ****       121.2500 156.0000  98.5000 Du        
   5919 ****       121.2500 156.0000  98.7500 Du        
   5920 ****       121.2500 162.2500 164.7500 Du        
   5921 ****       121.2500 162.2500 165.0000 Du        
   5922 ****       121.2500 162.5000 164.5000 Du        
   5923 ****       121.2500 162.5000 164.7500 Du        
   5924 ****       121.2500 162.5000 165.0000 Du        
   5925 ****       121.2500 162.5000 165.2500 Du        
   5926 ****       121.2500 162.7500 164.2500 Du        
   5927 ****       121.2500 162.7500 164.5000 Du        
   5928 ****       121.2500 162.7500 164.7500 Du        
   5929 ****       121.2500 162.7500 165.0000 Du        
   5930 ****       121.2500 162.7500 165.2500 Du        
   5931 ****       121.2500 162.7500 165.5000 Du        
   5932 ****       121.2500 163.0000 164.2500 Du        
   5933 ****       121.2500 163.0000 164.5000 Du        
   5934 ****       121.2500 163.0000 164.7500 Du        
   5935 ****       121.2500 163.0000 165.0000 Du        
   5936 ****       121.2500 163.0000 165.2500 Du        
   5937 ****       121.2500 163.0000 165.5000 Du        
   5938 ****       121.2500 163.0000 165.7500 Du        
   5939 ****       121.2500 163.2500 164.2500 Du        
   5940 ****       121.2500 163.2500 164.5000 Du        
   5941 ****       121.2500 163.2500 164.7500 Du        
   5942 ****       121.2500 163.2500 165.0000 Du        
   5943 ****       121.2500 163.2500 165.2500 Du        
   5944 ****       121.2500 163.2500 165.5000 Du        
   5945 ****       121.2500 163.2500 165.7500 Du        
   5946 ****       121.2500 163.2500 166.0000 Du        
   5947 ****       121.2500 163.2500 166.2500 Du        
   5948 ****       121.2500 163.5000 164.2500 Du        
   5949 ****       121.2500 163.5000 164.5000 Du        
   5950 ****       121.2500 163.5000 164.7500 Du        
   5951 ****       121.2500 163.5000 165.0000 Du        
   5952 ****       121.2500 163.5000 165.2500 Du        
   5953 ****       121.2500 163.5000 165.5000 Du        
   5954 ****       121.2500 163.5000 165.7500 Du        
   5955 ****       121.2500 163.5000 166.0000 Du        
   5956 ****       121.2500 163.5000 166.2500 Du        
   5957 ****       121.2500 163.5000 166.5000 Du        
   5958 ****       121.2500 163.5000 166.7500 Du        
   5959 ****       121.2500 163.5000 167.0000 Du        
   5960 ****       121.2500 163.7500 164.2500 Du        
   5961 ****       121.2500 163.7500 164.5000 Du        
   5962 ****       121.2500 163.7500 164.7500 Du        
   5963 ****       121.2500 163.7500 165.0000 Du        
   5964 ****       121.2500 163.7500 165.2500 Du        
   5965 ****       121.2500 163.7500 165.5000 Du        
   5966 ****       121.2500 163.7500 165.7500 Du        
   5967 ****       121.2500 163.7500 166.0000 Du        
   5968 ****       121.2500 163.7500 166.2500 Du        
   5969 ****       121.2500 163.7500 166.5000 Du        
   5970 ****       121.2500 163.7500 166.7500 Du        
   5971 ****       121.2500 163.7500 167.0000 Du        
   5972 ****       121.2500 164.0000 164.0000 Du        
   5973 ****       121.2500 164.0000 164.2500 Du        
   5974 ****       121.2500 164.0000 164.5000 Du        
   5975 ****       121.2500 164.0000 164.7500 Du        
   5976 ****       121.2500 164.0000 165.0000 Du        
   5977 ****       121.2500 164.0000 165.2500 Du        
   5978 ****       121.2500 164.0000 165.5000 Du        
   5979 ****       121.2500 164.0000 165.7500 Du        
   5980 ****       121.2500 164.0000 166.0000 Du        
   5981 ****       121.2500 164.0000 166.2500 Du        
   5982 ****       121.2500 164.0000 166.5000 Du        
   5983 ****       121.2500 164.0000 166.7500 Du        
   5984 ****       121.2500 164.0000 167.0000 Du        
   5985 ****       121.2500 164.2500 164.0000 Du        
   5986 ****       121.2500 164.2500 164.2500 Du        
   5987 ****       121.2500 164.2500 164.5000 Du        
   5988 ****       121.2500 164.2500 164.7500 Du        
   5989 ****       121.2500 164.2500 165.0000 Du        
   5990 ****       121.2500 164.2500 165.2500 Du        
   5991 ****       121.2500 164.2500 165.5000 Du        
   5992 ****       121.2500 164.2500 165.7500 Du        
   5993 ****       121.2500 164.2500 166.0000 Du        
   5994 ****       121.2500 164.2500 166.2500 Du        
   5995 ****       121.2500 164.2500 166.5000 Du        
   5996 ****       121.2500 164.2500 166.7500 Du        
   5997 ****       121.2500 164.2500 167.0000 Du        
   5998 ****       121.2500 164.5000 164.5000 Du        
   5999 ****       121.2500 164.5000 164.7500 Du        
   6000 ****       121.2500 164.5000 165.0000 Du        
   6001 ****       121.2500 164.5000 165.2500 Du        
   6002 ****       121.2500 164.5000 165.5000 Du        
   6003 ****       121.2500 164.5000 165.7500 Du        
   6004 ****       121.2500 164.5000 166.0000 Du        
   6005 ****       121.2500 164.5000 166.2500 Du        
   6006 ****       121.2500 164.5000 166.5000 Du        
   6007 ****       121.2500 164.5000 166.7500 Du        
   6008 ****       121.2500 164.5000 167.0000 Du        
   6009 ****       121.2500 164.7500 164.5000 Du        
   6010 ****       121.2500 164.7500 164.7500 Du        
   6011 ****       121.2500 164.7500 165.0000 Du        
   6012 ****       121.2500 164.7500 165.2500 Du        
   6013 ****       121.2500 164.7500 165.5000 Du        
   6014 ****       121.2500 164.7500 165.7500 Du        
   6015 ****       121.2500 164.7500 166.0000 Du        
   6016 ****       121.2500 164.7500 166.2500 Du        
   6017 ****       121.2500 164.7500 166.5000 Du        
   6018 ****       121.2500 165.0000 165.0000 Du        
   6019 ****       121.2500 165.0000 165.2500 Du        
   6020 ****       121.2500 165.0000 165.5000 Du        
   6021 ****       121.2500 165.0000 165.7500 Du        
   6022 ****       121.2500 165.0000 166.0000 Du        
   6023 ****       121.2500 165.0000 166.2500 Du        
   6024 ****       121.2500 165.0000 166.5000 Du        
   6025 ****       121.2500 165.2500 165.5000 Du        
   6026 ****       121.2500 165.2500 165.7500 Du        
   6027 ****       121.2500 165.2500 166.0000 Du        
   6028 ****       121.5000 126.2500 104.5000 Du        
   6029 ****       121.5000 126.2500 104.7500 Du        
   6030 ****       121.5000 126.5000 104.0000 Du        
   6031 ****       121.5000 126.5000 104.2500 Du        
   6032 ****       121.5000 126.5000 104.5000 Du        
   6033 ****       121.5000 126.5000 104.7500 Du        
   6034 ****       121.5000 126.7500 104.2500 Du        
   6035 ****       121.5000 126.7500 104.5000 Du        
   6036 ****       121.5000 126.7500 104.7500 Du        
   6037 ****       121.5000 127.0000  96.7500 Du        
   6038 ****       121.5000 127.0000  97.0000 Du        
   6039 ****       121.5000 127.0000 104.2500 Du        
   6040 ****       121.5000 127.0000 104.5000 Du        
   6041 ****       121.5000 131.5000 161.5000 Du        
   6042 ****       121.5000 131.5000 161.7500 Du        
   6043 ****       121.5000 131.5000 162.0000 Du        
   6044 ****       121.5000 131.7500 161.5000 Du        
   6045 ****       121.5000 131.7500 161.7500 Du        
   6046 ****       121.5000 131.7500 162.0000 Du        
   6047 ****       121.5000 132.0000 161.5000 Du        
   6048 ****       121.5000 132.0000 161.7500 Du        
   6049 ****       121.5000 132.0000 162.0000 Du        
   6050 ****       121.5000 132.2500 161.5000 Du        
   6051 ****       121.5000 132.2500 161.7500 Du        
   6052 ****       121.5000 134.0000 138.0000 Du        
   6053 ****       121.5000 134.0000 138.2500 Du        
   6054 ****       121.5000 134.2500 137.0000 Du        
   6055 ****       121.5000 134.2500 137.2500 Du        
   6056 ****       121.5000 134.2500 137.5000 Du        
   6057 ****       121.5000 134.2500 137.7500 Du        
   6058 ****       121.5000 134.2500 138.0000 Du        
   6059 ****       121.5000 134.2500 138.2500 Du        
   6060 ****       121.5000 134.2500 138.5000 Du        
   6061 ****       121.5000 134.2500 138.7500 Du        
   6062 ****       121.5000 134.5000 137.0000 Du        
   6063 ****       121.5000 134.5000 137.2500 Du        
   6064 ****       121.5000 134.5000 137.5000 Du        
   6065 ****       121.5000 134.5000 137.7500 Du        
   6066 ****       121.5000 134.5000 138.0000 Du        
   6067 ****       121.5000 134.5000 138.2500 Du        
   6068 ****       121.5000 134.7500 137.2500 Du        
   6069 ****       121.5000 134.7500 137.5000 Du        
   6070 ****       121.5000 134.7500 137.7500 Du        
   6071 ****       121.5000 142.7500 159.7500 Du        
   6072 ****       121.5000 142.7500 160.0000 Du        
   6073 ****       121.5000 143.0000 159.0000 Du        
   6074 ****       121.5000 143.0000 159.2500 Du        
   6075 ****       121.5000 143.0000 159.5000 Du        
   6076 ****       121.5000 143.0000 159.7500 Du        
   6077 ****       121.5000 143.0000 160.0000 Du        
   6078 ****       121.5000 143.0000 160.2500 Du        
   6079 ****       121.5000 143.2500 158.5000 Du        
   6080 ****       121.5000 143.2500 158.7500 Du        
   6081 ****       121.5000 143.2500 159.0000 Du        
   6082 ****       121.5000 143.2500 159.2500 Du        
   6083 ****       121.5000 143.2500 159.5000 Du        
   6084 ****       121.5000 143.2500 159.7500 Du        
   6085 ****       121.5000 143.2500 160.0000 Du        
   6086 ****       121.5000 143.2500 160.2500 Du        
   6087 ****       121.5000 143.5000 158.2500 Du        
   6088 ****       121.5000 143.5000 158.5000 Du        
   6089 ****       121.5000 143.5000 158.7500 Du        
   6090 ****       121.5000 143.5000 159.0000 Du        
   6091 ****       121.5000 143.5000 159.2500 Du        
   6092 ****       121.5000 143.5000 159.5000 Du        
   6093 ****       121.5000 143.5000 159.7500 Du        
   6094 ****       121.5000 143.5000 160.0000 Du        
   6095 ****       121.5000 143.5000 160.2500 Du        
   6096 ****       121.5000 143.7500 158.2500 Du        
   6097 ****       121.5000 143.7500 158.5000 Du        
   6098 ****       121.5000 143.7500 158.7500 Du        
   6099 ****       121.5000 143.7500 159.0000 Du        
   6100 ****       121.5000 143.7500 159.2500 Du        
   6101 ****       121.5000 143.7500 159.5000 Du        
   6102 ****       121.5000 143.7500 159.7500 Du        
   6103 ****       121.5000 144.0000 158.5000 Du        
   6104 ****       121.5000 144.0000 158.7500 Du        
   6105 ****       121.5000 144.0000 159.0000 Du        
   6106 ****       121.5000 144.5000 128.0000 Du        
   6107 ****       121.5000 144.5000 128.2500 Du        
   6108 ****       121.5000 144.5000 128.5000 Du        
   6109 ****       121.5000 144.5000 128.7500 Du        
   6110 ****       121.5000 144.7500 127.7500 Du        
   6111 ****       121.5000 144.7500 128.0000 Du        
   6112 ****       121.5000 144.7500 128.2500 Du        
   6113 ****       121.5000 144.7500 128.5000 Du        
   6114 ****       121.5000 144.7500 128.7500 Du        
   6115 ****       121.5000 144.7500 129.0000 Du        
   6116 ****       121.5000 144.7500 129.2500 Du        
   6117 ****       121.5000 145.0000 127.7500 Du        
   6118 ****       121.5000 145.0000 128.0000 Du        
   6119 ****       121.5000 145.0000 128.2500 Du        
   6120 ****       121.5000 145.0000 128.5000 Du        
   6121 ****       121.5000 145.0000 128.7500 Du        
   6122 ****       121.5000 145.0000 129.0000 Du        
   6123 ****       121.5000 145.0000 129.2500 Du        
   6124 ****       121.5000 145.2500 127.7500 Du        
   6125 ****       121.5000 145.2500 128.0000 Du        
   6126 ****       121.5000 145.2500 128.2500 Du        
   6127 ****       121.5000 145.2500 128.5000 Du        
   6128 ****       121.5000 145.2500 128.7500 Du        
   6129 ****       121.5000 145.2500 129.0000 Du        
   6130 ****       121.5000 145.2500 129.2500 Du        
   6131 ****       121.5000 148.0000 110.7500 Du        
   6132 ****       121.5000 148.0000 111.0000 Du        
   6133 ****       121.5000 152.2500 152.2500 Du        
   6134 ****       121.5000 152.2500 152.5000 Du        
   6135 ****       121.5000 152.5000 152.7500 Du        
   6136 ****       121.5000 152.7500 152.5000 Du        
   6137 ****       121.5000 152.7500 152.7500 Du        
   6138 ****       121.5000 152.7500 153.0000 Du        
   6139 ****       121.5000 153.0000 108.0000 Du        
   6140 ****       121.5000 153.0000 152.5000 Du        
   6141 ****       121.5000 153.0000 152.7500 Du        
   6142 ****       121.5000 153.0000 153.0000 Du        
   6143 ****       121.5000 153.0000 153.2500 Du        
   6144 ****       121.5000 153.2500 108.0000 Du        
   6145 ****       121.5000 153.7500 108.0000 Du        
   6146 ****       121.5000 154.7500  97.5000 Du        
   6147 ****       121.5000 154.7500  97.7500 Du        
   6148 ****       121.5000 154.7500  98.0000 Du        
   6149 ****       121.5000 154.7500  98.2500 Du        
   6150 ****       121.5000 155.0000  97.2500 Du        
   6151 ****       121.5000 155.0000  97.5000 Du        
   6152 ****       121.5000 155.0000  97.7500 Du        
   6153 ****       121.5000 155.0000  98.0000 Du        
   6154 ****       121.5000 155.0000  98.2500 Du        
   6155 ****       121.5000 155.0000  98.5000 Du        
   6156 ****       121.5000 155.2500  97.2500 Du        
   6157 ****       121.5000 155.2500  97.5000 Du        
   6158 ****       121.5000 155.2500  97.7500 Du        
   6159 ****       121.5000 155.2500  98.0000 Du        
   6160 ****       121.5000 155.2500  98.2500 Du        
   6161 ****       121.5000 155.2500  98.5000 Du        
   6162 ****       121.5000 155.2500  98.7500 Du        
   6163 ****       121.5000 155.5000  97.5000 Du        
   6164 ****       121.5000 155.5000  97.7500 Du        
   6165 ****       121.5000 155.5000  98.0000 Du        
   6166 ****       121.5000 155.5000  98.2500 Du        
   6167 ****       121.5000 155.5000  98.5000 Du        
   6168 ****       121.5000 155.5000  98.7500 Du        
   6169 ****       121.5000 155.7500  97.5000 Du        
   6170 ****       121.5000 155.7500  97.7500 Du        
   6171 ****       121.5000 155.7500  98.0000 Du        
   6172 ****       121.5000 155.7500  98.2500 Du        
   6173 ****       121.5000 155.7500  98.5000 Du        
   6174 ****       121.5000 155.7500  98.7500 Du        
   6175 ****       121.5000 155.7500  99.0000 Du        
   6176 ****       121.5000 156.0000  98.0000 Du        
   6177 ****       121.5000 156.0000  98.2500 Du        
   6178 ****       121.5000 156.0000  98.5000 Du        
   6179 ****       121.5000 156.0000  98.7500 Du        
   6180 ****       121.5000 156.0000  99.0000 Du        
   6181 ****       121.5000 161.2500 156.5000 Du        
   6182 ****       121.5000 161.2500 156.7500 Du        
   6183 ****       121.5000 161.2500 157.0000 Du        
   6184 ****       121.5000 161.5000 156.5000 Du        
   6185 ****       121.5000 161.5000 156.7500 Du        
   6186 ****       121.5000 161.5000 157.0000 Du        
   6187 ****       121.5000 161.5000 157.2500 Du        
   6188 ****       121.5000 161.7500 156.7500 Du        
   6189 ****       121.5000 161.7500 157.0000 Du        
   6190 ****       121.5000 161.7500 157.2500 Du        
   6191 ****       121.5000 162.0000 156.7500 Du        
   6192 ****       121.5000 162.0000 157.0000 Du        
   6193 ****       121.5000 162.0000 157.2500 Du        
   6194 ****       121.5000 162.0000 157.5000 Du        
   6195 ****       121.5000 162.2500 157.5000 Du        
   6196 ****       121.5000 162.2500 157.7500 Du        
   6197 ****       121.5000 162.2500 164.7500 Du        
   6198 ****       121.5000 162.2500 165.0000 Du        
   6199 ****       121.5000 162.5000 164.7500 Du        
   6200 ****       121.5000 162.5000 165.0000 Du        
   6201 ****       121.5000 162.5000 165.2500 Du        
   6202 ****       121.5000 162.7500 164.5000 Du        
   6203 ****       121.5000 162.7500 164.7500 Du        
   6204 ****       121.5000 162.7500 165.0000 Du        
   6205 ****       121.5000 162.7500 165.2500 Du        
   6206 ****       121.5000 162.7500 165.5000 Du        
   6207 ****       121.5000 162.7500 165.7500 Du        
   6208 ****       121.5000 163.0000 164.5000 Du        
   6209 ****       121.5000 163.0000 164.7500 Du        
   6210 ****       121.5000 163.0000 165.0000 Du        
   6211 ****       121.5000 163.0000 165.2500 Du        
   6212 ****       121.5000 163.0000 165.5000 Du        
   6213 ****       121.5000 163.0000 165.7500 Du        
   6214 ****       121.5000 163.0000 166.0000 Du        
   6215 ****       121.5000 163.2500 164.5000 Du        
   6216 ****       121.5000 163.2500 164.7500 Du        
   6217 ****       121.5000 163.2500 165.0000 Du        
   6218 ****       121.5000 163.2500 165.2500 Du        
   6219 ****       121.5000 163.2500 165.5000 Du        
   6220 ****       121.5000 163.2500 165.7500 Du        
   6221 ****       121.5000 163.2500 166.0000 Du        
   6222 ****       121.5000 163.2500 166.2500 Du        
   6223 ****       121.5000 163.2500 166.5000 Du        
   6224 ****       121.5000 163.5000 164.5000 Du        
   6225 ****       121.5000 163.5000 164.7500 Du        
   6226 ****       121.5000 163.5000 165.0000 Du        
   6227 ****       121.5000 163.5000 165.2500 Du        
   6228 ****       121.5000 163.5000 165.5000 Du        
   6229 ****       121.5000 163.5000 165.7500 Du        
   6230 ****       121.5000 163.5000 166.0000 Du        
   6231 ****       121.5000 163.5000 166.2500 Du        
   6232 ****       121.5000 163.5000 166.5000 Du        
   6233 ****       121.5000 163.5000 166.7500 Du        
   6234 ****       121.5000 163.5000 167.0000 Du        
   6235 ****       121.5000 163.7500 164.5000 Du        
   6236 ****       121.5000 163.7500 164.7500 Du        
   6237 ****       121.5000 163.7500 165.0000 Du        
   6238 ****       121.5000 163.7500 165.2500 Du        
   6239 ****       121.5000 163.7500 165.5000 Du        
   6240 ****       121.5000 163.7500 165.7500 Du        
   6241 ****       121.5000 163.7500 166.0000 Du        
   6242 ****       121.5000 163.7500 166.2500 Du        
   6243 ****       121.5000 163.7500 166.5000 Du        
   6244 ****       121.5000 163.7500 166.7500 Du        
   6245 ****       121.5000 163.7500 167.0000 Du        
   6246 ****       121.5000 163.7500 167.2500 Du        
   6247 ****       121.5000 163.7500 167.5000 Du        
   6248 ****       121.5000 164.0000 164.5000 Du        
   6249 ****       121.5000 164.0000 164.7500 Du        
   6250 ****       121.5000 164.0000 165.0000 Du        
   6251 ****       121.5000 164.0000 165.2500 Du        
   6252 ****       121.5000 164.0000 165.5000 Du        
   6253 ****       121.5000 164.0000 165.7500 Du        
   6254 ****       121.5000 164.0000 166.0000 Du        
   6255 ****       121.5000 164.0000 166.2500 Du        
   6256 ****       121.5000 164.0000 166.5000 Du        
   6257 ****       121.5000 164.0000 166.7500 Du        
   6258 ****       121.5000 164.0000 167.0000 Du        
   6259 ****       121.5000 164.0000 167.2500 Du        
   6260 ****       121.5000 164.0000 167.5000 Du        
   6261 ****       121.5000 164.2500 164.2500 Du        
   6262 ****       121.5000 164.2500 164.5000 Du        
   6263 ****       121.5000 164.2500 164.7500 Du        
   6264 ****       121.5000 164.2500 165.0000 Du        
   6265 ****       121.5000 164.2500 165.2500 Du        
   6266 ****       121.5000 164.2500 165.5000 Du        
   6267 ****       121.5000 164.2500 165.7500 Du        
   6268 ****       121.5000 164.2500 166.0000 Du        
   6269 ****       121.5000 164.2500 166.2500 Du        
   6270 ****       121.5000 164.2500 166.5000 Du        
   6271 ****       121.5000 164.2500 166.7500 Du        
   6272 ****       121.5000 164.2500 167.0000 Du        
   6273 ****       121.5000 164.5000 165.0000 Du        
   6274 ****       121.5000 164.5000 165.2500 Du        
   6275 ****       121.5000 164.5000 165.5000 Du        
   6276 ****       121.5000 164.5000 165.7500 Du        
   6277 ****       121.5000 164.5000 166.0000 Du        
   6278 ****       121.5000 164.5000 166.2500 Du        
   6279 ****       121.5000 164.5000 166.5000 Du        
   6280 ****       121.5000 164.5000 166.7500 Du        
   6281 ****       121.5000 164.5000 167.0000 Du        
   6282 ****       121.5000 164.7500 164.7500 Du        
   6283 ****       121.5000 164.7500 165.0000 Du        
   6284 ****       121.5000 164.7500 165.2500 Du        
   6285 ****       121.5000 164.7500 165.5000 Du        
   6286 ****       121.5000 164.7500 165.7500 Du        
   6287 ****       121.5000 164.7500 166.0000 Du        
   6288 ****       121.5000 164.7500 166.2500 Du        
   6289 ****       121.5000 164.7500 166.5000 Du        
   6290 ****       121.5000 164.7500 166.7500 Du        
   6291 ****       121.5000 164.7500 167.0000 Du        
   6292 ****       121.5000 165.0000 164.7500 Du        
   6293 ****       121.5000 165.0000 165.0000 Du        
   6294 ****       121.5000 165.0000 165.2500 Du        
   6295 ****       121.5000 165.0000 165.5000 Du        
   6296 ****       121.5000 165.0000 165.7500 Du        
   6297 ****       121.5000 165.0000 166.0000 Du        
   6298 ****       121.5000 165.0000 166.2500 Du        
   6299 ****       121.5000 165.0000 166.5000 Du        
   6300 ****       121.5000 165.0000 166.7500 Du        
   6301 ****       121.5000 165.0000 167.0000 Du        
   6302 ****       121.5000 165.2500 165.0000 Du        
   6303 ****       121.5000 165.2500 165.2500 Du        
   6304 ****       121.5000 165.2500 165.5000 Du        
   6305 ****       121.5000 165.2500 165.7500 Du        
   6306 ****       121.5000 165.2500 166.0000 Du        
   6307 ****       121.7500 124.7500 110.7500 Du        
   6308 ****       121.7500 124.7500 111.0000 Du        
   6309 ****       121.7500 125.0000 110.7500 Du        
   6310 ****       121.7500 125.0000 111.0000 Du        
   6311 ****       121.7500 125.2500 111.0000 Du        
   6312 ****       121.7500 126.5000 104.0000 Du        
   6313 ****       121.7500 126.5000 104.2500 Du        
   6314 ****       121.7500 126.7500 104.2500 Du        
   6315 ****       121.7500 131.2500 161.7500 Du        
   6316 ****       121.7500 131.5000 161.5000 Du        
   6317 ****       121.7500 131.5000 161.7500 Du        
   6318 ****       121.7500 131.5000 162.0000 Du        
   6319 ****       121.7500 131.7500 161.5000 Du        
   6320 ****       121.7500 131.7500 161.7500 Du        
   6321 ****       121.7500 131.7500 162.0000 Du        
   6322 ****       121.7500 131.7500 162.2500 Du        
   6323 ****       121.7500 132.0000 161.5000 Du        
   6324 ****       121.7500 132.0000 161.7500 Du        
   6325 ****       121.7500 132.0000 162.0000 Du        
   6326 ****       121.7500 132.0000 162.2500 Du        
   6327 ****       121.7500 132.2500 161.5000 Du        
   6328 ****       121.7500 132.2500 161.7500 Du        
   6329 ****       121.7500 132.2500 162.0000 Du        
   6330 ****       121.7500 134.2500 137.0000 Du        
   6331 ****       121.7500 134.2500 137.2500 Du        
   6332 ****       121.7500 134.2500 137.5000 Du        
   6333 ****       121.7500 134.2500 137.7500 Du        
   6334 ****       121.7500 134.2500 138.0000 Du        
   6335 ****       121.7500 134.2500 138.2500 Du        
   6336 ****       121.7500 134.2500 138.5000 Du        
   6337 ****       121.7500 134.5000 137.0000 Du        
   6338 ****       121.7500 134.5000 137.2500 Du        
   6339 ****       121.7500 134.5000 137.5000 Du        
   6340 ****       121.7500 134.5000 137.7500 Du        
   6341 ****       121.7500 134.5000 138.0000 Du        
   6342 ****       121.7500 134.5000 138.2500 Du        
   6343 ****       121.7500 134.7500 137.2500 Du        
   6344 ****       121.7500 134.7500 137.5000 Du        
   6345 ****       121.7500 134.7500 137.7500 Du        
   6346 ****       121.7500 134.7500 138.0000 Du        
   6347 ****       121.7500 139.7500  95.0000 Du        
   6348 ****       121.7500 139.7500  95.2500 Du        
   6349 ****       121.7500 139.7500  95.5000 Du        
   6350 ****       121.7500 139.7500  95.7500 Du        
   6351 ****       121.7500 140.0000  95.2500 Du        
   6352 ****       121.7500 140.0000  95.5000 Du        
   6353 ****       121.7500 140.0000  95.7500 Du        
   6354 ****       121.7500 143.0000 159.2500 Du        
   6355 ****       121.7500 143.0000 159.5000 Du        
   6356 ****       121.7500 143.0000 159.7500 Du        
   6357 ****       121.7500 143.0000 160.0000 Du        
   6358 ****       121.7500 143.2500 158.7500 Du        
   6359 ****       121.7500 143.2500 159.0000 Du        
   6360 ****       121.7500 143.2500 159.2500 Du        
   6361 ****       121.7500 143.2500 159.5000 Du        
   6362 ****       121.7500 143.2500 159.7500 Du        
   6363 ****       121.7500 143.2500 160.0000 Du        
   6364 ****       121.7500 143.5000 158.5000 Du        
   6365 ****       121.7500 143.5000 158.7500 Du        
   6366 ****       121.7500 143.5000 159.0000 Du        
   6367 ****       121.7500 143.5000 159.2500 Du        
   6368 ****       121.7500 143.5000 159.5000 Du        
   6369 ****       121.7500 143.5000 159.7500 Du        
   6370 ****       121.7500 143.5000 160.0000 Du        
   6371 ****       121.7500 143.5000 160.2500 Du        
   6372 ****       121.7500 143.7500 158.5000 Du        
   6373 ****       121.7500 143.7500 158.7500 Du        
   6374 ****       121.7500 143.7500 159.0000 Du        
   6375 ****       121.7500 143.7500 159.2500 Du        
   6376 ****       121.7500 143.7500 159.5000 Du        
   6377 ****       121.7500 143.7500 159.7500 Du        
   6378 ****       121.7500 144.0000 120.0000 Du        
   6379 ****       121.7500 144.0000 158.5000 Du        
   6380 ****       121.7500 144.0000 158.7500 Du        
   6381 ****       121.7500 144.0000 159.0000 Du        
   6382 ****       121.7500 144.2500 119.2500 Du        
   6383 ****       121.7500 144.2500 119.5000 Du        
   6384 ****       121.7500 144.2500 119.7500 Du        
   6385 ****       121.7500 144.2500 120.0000 Du        
   6386 ****       121.7500 144.5000 128.2500 Du        
   6387 ****       121.7500 144.5000 128.7500 Du        
   6388 ****       121.7500 144.7500 127.7500 Du        
   6389 ****       121.7500 144.7500 128.0000 Du        
   6390 ****       121.7500 144.7500 128.2500 Du        
   6391 ****       121.7500 144.7500 128.5000 Du        
   6392 ****       121.7500 144.7500 128.7500 Du        
   6393 ****       121.7500 144.7500 129.0000 Du        
   6394 ****       121.7500 144.7500 129.2500 Du        
   6395 ****       121.7500 145.0000 127.5000 Du        
   6396 ****       121.7500 145.0000 127.7500 Du        
   6397 ****       121.7500 145.0000 128.0000 Du        
   6398 ****       121.7500 145.0000 128.2500 Du        
   6399 ****       121.7500 145.0000 128.5000 Du        
   6400 ****       121.7500 145.0000 128.7500 Du        
   6401 ****       121.7500 145.0000 129.0000 Du        
   6402 ****       121.7500 145.0000 129.2500 Du        
   6403 ****       121.7500 145.0000 129.5000 Du        
   6404 ****       121.7500 145.2500 127.7500 Du        
   6405 ****       121.7500 145.2500 128.0000 Du        
   6406 ****       121.7500 145.2500 128.2500 Du        
   6407 ****       121.7500 145.2500 128.5000 Du        
   6408 ****       121.7500 145.2500 128.7500 Du        
   6409 ****       121.7500 145.2500 129.0000 Du        
   6410 ****       121.7500 145.2500 129.2500 Du        
   6411 ****       121.7500 151.7500 152.0000 Du        
   6412 ****       121.7500 151.7500 152.2500 Du        
   6413 ****       121.7500 152.0000 152.0000 Du        
   6414 ****       121.7500 152.0000 152.2500 Du        
   6415 ****       121.7500 152.0000 152.5000 Du        
   6416 ****       121.7500 152.2500 152.0000 Du        
   6417 ****       121.7500 152.2500 152.2500 Du        
   6418 ****       121.7500 152.2500 152.5000 Du        
   6419 ****       121.7500 152.2500 152.7500 Du        
   6420 ****       121.7500 152.5000 152.5000 Du        
   6421 ****       121.7500 152.5000 152.7500 Du        
   6422 ****       121.7500 152.5000 153.0000 Du        
   6423 ****       121.7500 152.7500 152.2500 Du        
   6424 ****       121.7500 152.7500 152.5000 Du        
   6425 ****       121.7500 152.7500 152.7500 Du        
   6426 ****       121.7500 152.7500 153.0000 Du        
   6427 ****       121.7500 152.7500 153.2500 Du        
   6428 ****       121.7500 153.0000 152.2500 Du        
   6429 ****       121.7500 153.0000 152.5000 Du        
   6430 ****       121.7500 153.0000 152.7500 Du        
   6431 ****       121.7500 153.0000 153.0000 Du        
   6432 ****       121.7500 153.0000 153.2500 Du        
   6433 ****       121.7500 154.0000 107.7500 Du        
   6434 ****       121.7500 154.0000 108.0000 Du        
   6435 ****       121.7500 154.2500 107.5000 Du        
   6436 ****       121.7500 154.2500 107.7500 Du        
   6437 ****       121.7500 154.5000 107.2500 Du        
   6438 ****       121.7500 154.7500  97.5000 Du        
   6439 ****       121.7500 154.7500  97.7500 Du        
   6440 ****       121.7500 154.7500  98.0000 Du        
   6441 ****       121.7500 154.7500  98.2500 Du        
   6442 ****       121.7500 154.7500 107.2500 Du        
   6443 ****       121.7500 155.0000  97.2500 Du        
   6444 ****       121.7500 155.0000  97.5000 Du        
   6445 ****       121.7500 155.0000  97.7500 Du        
   6446 ****       121.7500 155.0000  98.0000 Du        
   6447 ****       121.7500 155.0000  98.2500 Du        
   6448 ****       121.7500 155.0000  98.5000 Du        
   6449 ****       121.7500 155.2500  97.2500 Du        
   6450 ****       121.7500 155.2500  97.5000 Du        
   6451 ****       121.7500 155.2500  97.7500 Du        
   6452 ****       121.7500 155.2500  98.0000 Du        
   6453 ****       121.7500 155.2500  98.2500 Du        
   6454 ****       121.7500 155.2500  98.5000 Du        
   6455 ****       121.7500 155.2500  98.7500 Du        
   6456 ****       121.7500 155.5000  97.5000 Du        
   6457 ****       121.7500 155.5000  97.7500 Du        
   6458 ****       121.7500 155.5000  98.0000 Du        
   6459 ****       121.7500 155.5000  98.2500 Du        
   6460 ****       121.7500 155.5000  98.5000 Du        
   6461 ****       121.7500 155.5000  98.7500 Du        
   6462 ****       121.7500 155.7500  97.5000 Du        
   6463 ****       121.7500 155.7500  97.7500 Du        
   6464 ****       121.7500 155.7500  98.0000 Du        
   6465 ****       121.7500 155.7500  98.2500 Du        
   6466 ****       121.7500 155.7500  98.5000 Du        
   6467 ****       121.7500 155.7500  98.7500 Du        
   6468 ****       121.7500 155.7500  99.0000 Du        
   6469 ****       121.7500 156.0000  97.7500 Du        
   6470 ****       121.7500 156.0000  98.0000 Du        
   6471 ****       121.7500 156.0000  98.2500 Du        
   6472 ****       121.7500 156.0000  98.5000 Du        
   6473 ****       121.7500 156.0000  98.7500 Du        
   6474 ****       121.7500 156.0000  99.0000 Du        
   6475 ****       121.7500 156.2500  98.7500 Du        
   6476 ****       121.7500 161.0000 156.7500 Du        
   6477 ****       121.7500 161.2500 156.2500 Du        
   6478 ****       121.7500 161.2500 156.5000 Du        
   6479 ****       121.7500 161.2500 156.7500 Du        
   6480 ****       121.7500 161.2500 157.0000 Du        
   6481 ****       121.7500 161.2500 157.2500 Du        
   6482 ****       121.7500 161.5000 156.5000 Du        
   6483 ****       121.7500 161.5000 156.7500 Du        
   6484 ****       121.7500 161.5000 157.0000 Du        
   6485 ****       121.7500 161.5000 157.2500 Du        
   6486 ****       121.7500 161.5000 157.5000 Du        
   6487 ****       121.7500 161.7500 156.5000 Du        
   6488 ****       121.7500 161.7500 156.7500 Du        
   6489 ****       121.7500 161.7500 157.0000 Du        
   6490 ****       121.7500 161.7500 157.2500 Du        
   6491 ****       121.7500 161.7500 157.5000 Du        
   6492 ****       121.7500 162.0000 156.7500 Du        
   6493 ****       121.7500 162.0000 157.0000 Du        
   6494 ****       121.7500 162.0000 157.2500 Du        
   6495 ****       121.7500 162.0000 157.5000 Du        
   6496 ****       121.7500 162.0000 157.7500 Du        
   6497 ****       121.7500 162.2500 157.0000 Du        
   6498 ****       121.7500 162.2500 157.2500 Du        
   6499 ****       121.7500 162.2500 157.5000 Du        
   6500 ****       121.7500 162.2500 157.7500 Du        
   6501 ****       121.7500 162.5000 165.0000 Du        
   6502 ****       121.7500 162.5000 165.2500 Du        
   6503 ****       121.7500 162.7500 165.0000 Du        
   6504 ****       121.7500 162.7500 165.2500 Du        
   6505 ****       121.7500 162.7500 165.5000 Du        
   6506 ****       121.7500 162.7500 165.7500 Du        
   6507 ****       121.7500 163.0000 165.0000 Du        
   6508 ****       121.7500 163.0000 165.2500 Du        
   6509 ****       121.7500 163.0000 165.5000 Du        
   6510 ****       121.7500 163.0000 165.7500 Du        
   6511 ****       121.7500 163.0000 166.0000 Du        
   6512 ****       121.7500 163.0000 166.2500 Du        
   6513 ****       121.7500 163.2500 165.0000 Du        
   6514 ****       121.7500 163.2500 165.2500 Du        
   6515 ****       121.7500 163.2500 165.5000 Du        
   6516 ****       121.7500 163.2500 165.7500 Du        
   6517 ****       121.7500 163.2500 166.0000 Du        
   6518 ****       121.7500 163.2500 166.2500 Du        
   6519 ****       121.7500 163.2500 166.5000 Du        
   6520 ****       121.7500 163.2500 166.7500 Du        
   6521 ****       121.7500 163.5000 165.2500 Du        
   6522 ****       121.7500 163.5000 165.5000 Du        
   6523 ****       121.7500 163.5000 165.7500 Du        
   6524 ****       121.7500 163.5000 166.0000 Du        
   6525 ****       121.7500 163.5000 166.2500 Du        
   6526 ****       121.7500 163.5000 166.5000 Du        
   6527 ****       121.7500 163.5000 166.7500 Du        
   6528 ****       121.7500 163.5000 167.0000 Du        
   6529 ****       121.7500 163.5000 167.2500 Du        
   6530 ****       121.7500 163.7500 165.2500 Du        
   6531 ****       121.7500 163.7500 165.5000 Du        
   6532 ****       121.7500 163.7500 165.7500 Du        
   6533 ****       121.7500 163.7500 166.0000 Du        
   6534 ****       121.7500 163.7500 166.2500 Du        
   6535 ****       121.7500 163.7500 166.5000 Du        
   6536 ****       121.7500 163.7500 166.7500 Du        
   6537 ****       121.7500 163.7500 167.0000 Du        
   6538 ****       121.7500 163.7500 167.2500 Du        
   6539 ****       121.7500 163.7500 167.5000 Du        
   6540 ****       121.7500 164.0000 165.2500 Du        
   6541 ****       121.7500 164.0000 165.5000 Du        
   6542 ****       121.7500 164.0000 165.7500 Du        
   6543 ****       121.7500 164.0000 166.0000 Du        
   6544 ****       121.7500 164.0000 166.2500 Du        
   6545 ****       121.7500 164.0000 166.5000 Du        
   6546 ****       121.7500 164.0000 166.7500 Du        
   6547 ****       121.7500 164.0000 167.0000 Du        
   6548 ****       121.7500 164.0000 167.2500 Du        
   6549 ****       121.7500 164.0000 167.5000 Du        
   6550 ****       121.7500 164.2500 165.0000 Du        
   6551 ****       121.7500 164.2500 165.2500 Du        
   6552 ****       121.7500 164.2500 165.5000 Du        
   6553 ****       121.7500 164.2500 165.7500 Du        
   6554 ****       121.7500 164.2500 166.0000 Du        
   6555 ****       121.7500 164.2500 166.2500 Du        
   6556 ****       121.7500 164.2500 166.5000 Du        
   6557 ****       121.7500 164.2500 166.7500 Du        
   6558 ****       121.7500 164.2500 167.0000 Du        
   6559 ****       121.7500 164.5000 165.2500 Du        
   6560 ****       121.7500 164.5000 165.5000 Du        
   6561 ****       121.7500 164.5000 165.7500 Du        
   6562 ****       121.7500 164.5000 166.0000 Du        
   6563 ****       121.7500 164.5000 166.2500 Du        
   6564 ****       121.7500 164.5000 166.5000 Du        
   6565 ****       121.7500 164.5000 166.7500 Du        
   6566 ****       121.7500 164.5000 167.0000 Du        
   6567 ****       121.7500 164.7500 165.2500 Du        
   6568 ****       121.7500 164.7500 165.5000 Du        
   6569 ****       121.7500 164.7500 165.7500 Du        
   6570 ****       121.7500 164.7500 166.0000 Du        
   6571 ****       121.7500 164.7500 166.2500 Du        
   6572 ****       121.7500 164.7500 166.5000 Du        
   6573 ****       121.7500 164.7500 166.7500 Du        
   6574 ****       121.7500 164.7500 167.0000 Du        
   6575 ****       121.7500 165.0000 165.0000 Du        
   6576 ****       121.7500 165.0000 165.2500 Du        
   6577 ****       121.7500 165.0000 165.5000 Du        
   6578 ****       121.7500 165.0000 165.7500 Du        
   6579 ****       121.7500 165.0000 166.0000 Du        
   6580 ****       121.7500 165.0000 166.2500 Du        
   6581 ****       121.7500 165.0000 166.5000 Du        
   6582 ****       121.7500 165.0000 166.7500 Du        
   6583 ****       121.7500 165.2500 165.0000 Du        
   6584 ****       121.7500 165.2500 165.2500 Du        
   6585 ****       121.7500 165.2500 165.5000 Du        
   6586 ****       121.7500 165.2500 165.7500 Du        
   6587 ****       121.7500 165.2500 166.0000 Du        
   6588 ****       122.0000 122.2500 123.7500 Du        
   6589 ****       122.0000 122.5000 123.7500 Du        
   6590 ****       122.0000 123.7500 119.7500 Du        
   6591 ****       122.0000 123.7500 120.0000 Du        
   6592 ****       122.0000 124.0000 119.7500 Du        
   6593 ****       122.0000 124.5000 111.0000 Du        
   6594 ****       122.0000 124.7500 110.7500 Du        
   6595 ****       122.0000 124.7500 111.0000 Du        
   6596 ****       122.0000 124.7500 111.2500 Du        
   6597 ****       122.0000 125.0000 110.7500 Du        
   6598 ****       122.0000 125.0000 111.0000 Du        
   6599 ****       122.0000 125.0000 111.2500 Du        
   6600 ****       122.0000 125.2500 110.7500 Du        
   6601 ****       122.0000 125.2500 111.0000 Du        
   6602 ****       122.0000 125.2500 111.2500 Du        
   6603 ****       122.0000 125.5000 111.0000 Du        
   6604 ****       122.0000 131.2500 161.7500 Du        
   6605 ****       122.0000 131.5000 161.5000 Du        
   6606 ****       122.0000 131.5000 161.7500 Du        
   6607 ****       122.0000 131.5000 162.0000 Du        
   6608 ****       122.0000 131.7500 161.5000 Du        
   6609 ****       122.0000 131.7500 161.7500 Du        
   6610 ****       122.0000 131.7500 162.0000 Du        
   6611 ****       122.0000 131.7500 162.2500 Du        
   6612 ****       122.0000 132.0000 161.5000 Du        
   6613 ****       122.0000 132.0000 161.7500 Du        
   6614 ****       122.0000 132.0000 162.0000 Du        
   6615 ****       122.0000 132.0000 162.2500 Du        
   6616 ****       122.0000 132.2500 161.5000 Du        
   6617 ****       122.0000 132.2500 161.7500 Du        
   6618 ****       122.0000 132.2500 162.0000 Du        
   6619 ****       122.0000 134.2500 137.0000 Du        
   6620 ****       122.0000 134.2500 137.2500 Du        
   6621 ****       122.0000 134.2500 137.5000 Du        
   6622 ****       122.0000 134.2500 137.7500 Du        
   6623 ****       122.0000 134.2500 138.0000 Du        
   6624 ****       122.0000 134.2500 138.2500 Du        
   6625 ****       122.0000 134.5000 137.0000 Du        
   6626 ****       122.0000 134.5000 137.2500 Du        
   6627 ****       122.0000 134.5000 137.5000 Du        
   6628 ****       122.0000 134.5000 137.7500 Du        
   6629 ****       122.0000 134.5000 138.0000 Du        
   6630 ****       122.0000 134.5000 138.2500 Du        
   6631 ****       122.0000 134.7500 137.2500 Du        
   6632 ****       122.0000 134.7500 137.5000 Du        
   6633 ****       122.0000 134.7500 137.7500 Du        
   6634 ****       122.0000 134.7500 138.0000 Du        
   6635 ****       122.0000 139.5000  94.7500 Du        
   6636 ****       122.0000 139.5000  95.0000 Du        
   6637 ****       122.0000 139.5000  95.2500 Du        
   6638 ****       122.0000 139.5000  95.5000 Du        
   6639 ****       122.0000 139.5000  95.7500 Du        
   6640 ****       122.0000 139.7500  94.7500 Du        
   6641 ****       122.0000 139.7500  95.0000 Du        
   6642 ****       122.0000 139.7500  95.2500 Du        
   6643 ****       122.0000 139.7500  95.5000 Du        
   6644 ****       122.0000 139.7500  95.7500 Du        
   6645 ****       122.0000 139.7500  96.0000 Du        
   6646 ****       122.0000 140.0000  95.2500 Du        
   6647 ****       122.0000 140.0000  95.5000 Du        
   6648 ****       122.0000 140.0000  95.7500 Du        
   6649 ****       122.0000 140.0000  96.0000 Du        
   6650 ****       122.0000 140.2500  95.7500 Du        
   6651 ****       122.0000 143.0000 159.7500 Du        
   6652 ****       122.0000 143.2500 159.0000 Du        
   6653 ****       122.0000 143.2500 159.2500 Du        
   6654 ****       122.0000 143.2500 159.5000 Du        
   6655 ****       122.0000 143.2500 159.7500 Du        
   6656 ****       122.0000 143.2500 160.0000 Du        
   6657 ****       122.0000 143.5000 158.7500 Du        
   6658 ****       122.0000 143.5000 159.0000 Du        
   6659 ****       122.0000 143.5000 159.2500 Du        
   6660 ****       122.0000 143.5000 159.5000 Du        
   6661 ****       122.0000 143.5000 159.7500 Du        
   6662 ****       122.0000 143.5000 160.0000 Du        
   6663 ****       122.0000 143.7500 158.7500 Du        
   6664 ****       122.0000 143.7500 159.0000 Du        
   6665 ****       122.0000 143.7500 159.2500 Du        
   6666 ****       122.0000 143.7500 159.5000 Du        
   6667 ****       122.0000 143.7500 159.7500 Du        
   6668 ****       122.0000 144.0000 158.7500 Du        
   6669 ****       122.0000 144.0000 159.0000 Du        
   6670 ****       122.0000 144.0000 159.2500 Du        
   6671 ****       122.0000 144.2500 119.2500 Du        
   6672 ****       122.0000 144.7500 128.0000 Du        
   6673 ****       122.0000 144.7500 128.2500 Du        
   6674 ****       122.0000 144.7500 128.5000 Du        
   6675 ****       122.0000 144.7500 128.7500 Du        
   6676 ****       122.0000 144.7500 129.0000 Du        
   6677 ****       122.0000 144.7500 129.2500 Du        
   6678 ****       122.0000 145.0000 127.5000 Du        
   6679 ****       122.0000 145.0000 127.7500 Du        
   6680 ****       122.0000 145.0000 128.0000 Du        
   6681 ****       122.0000 145.0000 128.2500 Du        
   6682 ****       122.0000 145.0000 128.5000 Du        
   6683 ****       122.0000 145.0000 128.7500 Du        
   6684 ****       122.0000 145.0000 129.0000 Du        
   6685 ****       122.0000 145.0000 129.2500 Du        
   6686 ****       122.0000 145.0000 129.5000 Du        
   6687 ****       122.0000 145.0000 129.7500 Du        
   6688 ****       122.0000 145.2500 127.5000 Du        
   6689 ****       122.0000 145.2500 127.7500 Du        
   6690 ****       122.0000 145.2500 128.0000 Du        
   6691 ****       122.0000 145.2500 128.2500 Du        
   6692 ****       122.0000 145.2500 128.5000 Du        
   6693 ****       122.0000 145.2500 128.7500 Du        
   6694 ****       122.0000 145.2500 129.0000 Du        
   6695 ****       122.0000 145.2500 129.2500 Du        
   6696 ****       122.0000 145.2500 129.5000 Du        
   6697 ****       122.0000 145.2500 129.7500 Du        
   6698 ****       122.0000 151.5000 151.7500 Du        
   6699 ****       122.0000 151.5000 152.0000 Du        
   6700 ****       122.0000 151.7500 151.7500 Du        
   6701 ****       122.0000 151.7500 152.0000 Du        
   6702 ****       122.0000 151.7500 152.2500 Du        
   6703 ****       122.0000 151.7500 152.5000 Du        
   6704 ****       122.0000 152.0000 151.7500 Du        
   6705 ****       122.0000 152.0000 152.0000 Du        
   6706 ****       122.0000 152.0000 152.2500 Du        
   6707 ****       122.0000 152.0000 152.5000 Du        
   6708 ****       122.0000 152.2500 152.0000 Du        
   6709 ****       122.0000 152.2500 152.2500 Du        
   6710 ****       122.0000 152.2500 152.5000 Du        
   6711 ****       122.0000 152.2500 152.7500 Du        
   6712 ****       122.0000 152.5000 152.0000 Du        
   6713 ****       122.0000 152.5000 152.2500 Du        
   6714 ****       122.0000 152.5000 152.5000 Du        
   6715 ****       122.0000 152.5000 152.7500 Du        
   6716 ****       122.0000 152.5000 153.0000 Du        
   6717 ****       122.0000 152.7500 152.0000 Du        
   6718 ****       122.0000 152.7500 152.2500 Du        
   6719 ****       122.0000 152.7500 152.5000 Du        
   6720 ****       122.0000 152.7500 152.7500 Du        
   6721 ****       122.0000 152.7500 153.0000 Du        
   6722 ****       122.0000 152.7500 153.2500 Du        
   6723 ****       122.0000 153.0000 152.2500 Du        
   6724 ****       122.0000 153.0000 152.5000 Du        
   6725 ****       122.0000 153.0000 152.7500 Du        
   6726 ****       122.0000 153.0000 153.0000 Du        
   6727 ****       122.0000 153.0000 153.2500 Du        
   6728 ****       122.0000 153.0000 156.5000 Du        
   6729 ****       122.0000 153.0000 156.7500 Du        
   6730 ****       122.0000 153.0000 157.0000 Du        
   6731 ****       122.0000 153.0000 157.2500 Du        
   6732 ****       122.0000 153.2500 156.7500 Du        
   6733 ****       122.0000 154.2500 107.7500 Du        
   6734 ****       122.0000 154.7500  97.7500 Du        
   6735 ****       122.0000 154.7500  98.0000 Du        
   6736 ****       122.0000 154.7500  98.2500 Du        
   6737 ****       122.0000 154.7500 107.2500 Du        
   6738 ****       122.0000 155.0000  97.5000 Du        
   6739 ****       122.0000 155.0000  97.7500 Du        
   6740 ****       122.0000 155.0000  98.0000 Du        
   6741 ****       122.0000 155.0000  98.2500 Du        
   6742 ****       122.0000 155.0000  98.5000 Du        
   6743 ****       122.0000 155.0000 107.0000 Du        
   6744 ****       122.0000 155.0000 107.2500 Du        
   6745 ****       122.0000 155.2500  97.5000 Du        
   6746 ****       122.0000 155.2500  97.7500 Du        
   6747 ****       122.0000 155.2500  98.0000 Du        
   6748 ****       122.0000 155.2500  98.2500 Du        
   6749 ****       122.0000 155.2500  98.5000 Du        
   6750 ****       122.0000 155.2500 107.0000 Du        
   6751 ****       122.0000 155.5000  97.5000 Du        
   6752 ****       122.0000 155.5000  97.7500 Du        
   6753 ****       122.0000 155.5000  98.0000 Du        
   6754 ****       122.0000 155.5000  98.2500 Du        
   6755 ****       122.0000 155.5000  98.5000 Du        
   6756 ****       122.0000 155.7500  97.5000 Du        
   6757 ****       122.0000 155.7500  97.7500 Du        
   6758 ****       122.0000 155.7500  98.0000 Du        
   6759 ****       122.0000 155.7500  98.2500 Du        
   6760 ****       122.0000 155.7500  98.5000 Du        
   6761 ****       122.0000 155.7500  98.7500 Du        
   6762 ****       122.0000 156.0000  97.7500 Du        
   6763 ****       122.0000 156.0000  98.0000 Du        
   6764 ****       122.0000 156.0000  98.2500 Du        
   6765 ****       122.0000 156.0000  98.5000 Du        
   6766 ****       122.0000 156.0000  98.7500 Du        
   6767 ****       122.0000 156.2500  98.5000 Du        
   6768 ****       122.0000 161.0000 156.5000 Du        
   6769 ****       122.0000 161.0000 156.7500 Du        
   6770 ****       122.0000 161.0000 157.0000 Du        
   6771 ****       122.0000 161.0000 157.2500 Du        
   6772 ****       122.0000 161.2500 156.0000 Du        
   6773 ****       122.0000 161.2500 156.2500 Du        
   6774 ****       122.0000 161.2500 156.5000 Du        
   6775 ****       122.0000 161.2500 156.7500 Du        
   6776 ****       122.0000 161.2500 157.0000 Du        
   6777 ****       122.0000 161.2500 157.2500 Du        
   6778 ****       122.0000 161.2500 157.5000 Du        
   6779 ****       122.0000 161.5000 156.5000 Du        
   6780 ****       122.0000 161.5000 156.7500 Du        
   6781 ****       122.0000 161.5000 157.0000 Du        
   6782 ****       122.0000 161.5000 157.2500 Du        
   6783 ****       122.0000 161.5000 157.5000 Du        
   6784 ****       122.0000 161.7500 156.5000 Du        
   6785 ****       122.0000 161.7500 156.7500 Du        
   6786 ****       122.0000 161.7500 157.0000 Du        
   6787 ****       122.0000 161.7500 157.2500 Du        
   6788 ****       122.0000 161.7500 157.5000 Du        
   6789 ****       122.0000 161.7500 157.7500 Du        
   6790 ****       122.0000 162.0000 156.5000 Du        
   6791 ****       122.0000 162.0000 156.7500 Du        
   6792 ****       122.0000 162.0000 157.0000 Du        
   6793 ****       122.0000 162.0000 157.2500 Du        
   6794 ****       122.0000 162.0000 157.5000 Du        
   6795 ****       122.0000 162.0000 157.7500 Du        
   6796 ****       122.0000 162.0000 158.0000 Du        
   6797 ****       122.0000 162.2500 157.0000 Du        
   6798 ****       122.0000 162.2500 157.2500 Du        
   6799 ****       122.0000 162.2500 157.5000 Du        
   6800 ****       122.0000 162.2500 157.7500 Du        
   6801 ****       122.0000 162.2500 158.0000 Du        
   6802 ****       122.0000 163.0000 165.7500 Du        
   6803 ****       122.0000 163.0000 166.0000 Du        
   6804 ****       122.0000 163.0000 166.2500 Du        
   6805 ****       122.0000 163.2500 165.7500 Du        
   6806 ****       122.0000 163.2500 166.0000 Du        
   6807 ****       122.0000 163.2500 166.2500 Du        
   6808 ****       122.0000 163.2500 166.5000 Du        
   6809 ****       122.0000 163.2500 166.7500 Du        
   6810 ****       122.0000 163.2500 167.0000 Du        
   6811 ****       122.0000 163.5000 166.0000 Du        
   6812 ****       122.0000 163.5000 166.2500 Du        
   6813 ****       122.0000 163.5000 166.5000 Du        
   6814 ****       122.0000 163.5000 166.7500 Du        
   6815 ****       122.0000 163.5000 167.0000 Du        
   6816 ****       122.0000 163.5000 167.2500 Du        
   6817 ****       122.0000 163.5000 167.5000 Du        
   6818 ****       122.0000 163.7500 165.7500 Du        
   6819 ****       122.0000 163.7500 166.0000 Du        
   6820 ****       122.0000 163.7500 166.2500 Du        
   6821 ****       122.0000 163.7500 166.5000 Du        
   6822 ****       122.0000 163.7500 166.7500 Du        
   6823 ****       122.0000 163.7500 167.0000 Du        
   6824 ****       122.0000 163.7500 167.2500 Du        
   6825 ****       122.0000 163.7500 167.5000 Du        
   6826 ****       122.0000 164.0000 165.7500 Du        
   6827 ****       122.0000 164.0000 166.0000 Du        
   6828 ****       122.0000 164.0000 166.2500 Du        
   6829 ****       122.0000 164.0000 166.5000 Du        
   6830 ****       122.0000 164.0000 166.7500 Du        
   6831 ****       122.0000 164.0000 167.0000 Du        
   6832 ****       122.0000 164.0000 167.2500 Du        
   6833 ****       122.0000 164.0000 167.5000 Du        
   6834 ****       122.0000 164.2500 165.7500 Du        
   6835 ****       122.0000 164.2500 166.0000 Du        
   6836 ****       122.0000 164.2500 166.2500 Du        
   6837 ****       122.0000 164.2500 166.5000 Du        
   6838 ****       122.0000 164.2500 166.7500 Du        
   6839 ****       122.0000 164.2500 167.0000 Du        
   6840 ****       122.0000 164.5000 166.0000 Du        
   6841 ****       122.0000 164.5000 166.2500 Du        
   6842 ****       122.0000 164.5000 166.5000 Du        
   6843 ****       122.0000 164.5000 166.7500 Du        
   6844 ****       122.0000 164.5000 167.0000 Du        
   6845 ****       122.0000 164.7500 165.7500 Du        
   6846 ****       122.0000 164.7500 166.0000 Du        
   6847 ****       122.0000 164.7500 166.2500 Du        
   6848 ****       122.0000 164.7500 166.5000 Du        
   6849 ****       122.0000 164.7500 166.7500 Du        
   6850 ****       122.0000 164.7500 167.0000 Du        
   6851 ****       122.0000 165.0000 166.0000 Du        
   6852 ****       122.0000 165.0000 166.2500 Du        
   6853 ****       122.2500 122.0000 122.5000 Du        
   6854 ****       122.2500 122.2500 122.5000 Du        
   6855 ****       122.2500 122.2500 122.7500 Du        
   6856 ****       122.2500 122.5000 121.5000 Du        
   6857 ****       122.2500 122.5000 121.7500 Du        
   6858 ****       122.2500 122.5000 122.0000 Du        
   6859 ****       122.2500 122.5000 122.2500 Du        
   6860 ****       122.2500 122.7500 120.7500 Du        
   6861 ****       122.2500 122.7500 121.0000 Du        
   6862 ****       122.2500 122.7500 121.2500 Du        
   6863 ****       122.2500 123.0000 120.7500 Du        
   6864 ****       122.2500 123.0000 121.0000 Du        
   6865 ****       122.2500 123.0000 121.2500 Du        
   6866 ****       122.2500 123.2500 120.7500 Du        
   6867 ****       122.2500 123.5000 119.7500 Du        
   6868 ****       122.2500 123.5000 120.0000 Du        
   6869 ****       122.2500 123.5000 120.2500 Du        
   6870 ****       122.2500 123.5000 120.5000 Du        
   6871 ****       122.2500 123.7500 119.7500 Du        
   6872 ****       122.2500 123.7500 120.0000 Du        
   6873 ****       122.2500 123.7500 120.2500 Du        
   6874 ****       122.2500 124.0000 119.2500 Du        
   6875 ****       122.2500 124.0000 119.5000 Du        
   6876 ****       122.2500 124.0000 119.7500 Du        
   6877 ****       122.2500 124.0000 120.0000 Du        
   6878 ****       122.2500 124.0000 120.2500 Du        
   6879 ****       122.2500 124.2500 119.5000 Du        
   6880 ****       122.2500 124.2500 119.7500 Du        
   6881 ****       122.2500 124.2500 120.0000 Du        
   6882 ****       122.2500 124.5000 110.7500 Du        
   6883 ****       122.2500 124.5000 111.0000 Du        
   6884 ****       122.2500 124.5000 111.2500 Du        
   6885 ****       122.2500 124.5000 119.7500 Du        
   6886 ****       122.2500 124.7500 110.7500 Du        
   6887 ****       122.2500 124.7500 111.0000 Du        
   6888 ****       122.2500 124.7500 111.2500 Du        
   6889 ****       122.2500 125.0000 110.7500 Du        
   6890 ****       122.2500 125.0000 111.0000 Du        
   6891 ****       122.2500 125.0000 111.2500 Du        
   6892 ****       122.2500 125.2500 111.0000 Du        
   6893 ****       122.2500 125.2500 111.2500 Du        
   6894 ****       122.2500 131.2500 161.7500 Du        
   6895 ****       122.2500 131.2500 162.0000 Du        
   6896 ****       122.2500 131.5000 161.7500 Du        
   6897 ****       122.2500 131.5000 162.0000 Du        
   6898 ****       122.2500 131.5000 162.2500 Du        
   6899 ****       122.2500 131.7500 161.5000 Du        
   6900 ****       122.2500 131.7500 161.7500 Du        
   6901 ****       122.2500 131.7500 162.0000 Du        
   6902 ****       122.2500 131.7500 162.2500 Du        
   6903 ****       122.2500 131.7500 162.5000 Du        
   6904 ****       122.2500 132.0000 161.5000 Du        
   6905 ****       122.2500 132.0000 161.7500 Du        
   6906 ****       122.2500 132.0000 162.0000 Du        
   6907 ****       122.2500 132.0000 162.2500 Du        
   6908 ****       122.2500 132.0000 162.5000 Du        
   6909 ****       122.2500 132.2500 161.5000 Du        
   6910 ****       122.2500 132.2500 161.7500 Du        
   6911 ****       122.2500 132.2500 162.0000 Du        
   6912 ****       122.2500 134.0000 137.0000 Du        
   6913 ****       122.2500 134.0000 137.2500 Du        
   6914 ****       122.2500 134.2500 137.0000 Du        
   6915 ****       122.2500 134.2500 137.2500 Du        
   6916 ****       122.2500 134.2500 137.5000 Du        
   6917 ****       122.2500 134.2500 137.7500 Du        
   6918 ****       122.2500 134.2500 138.0000 Du        
   6919 ****       122.2500 134.2500 138.2500 Du        
   6920 ****       122.2500 134.5000 137.0000 Du        
   6921 ****       122.2500 134.5000 137.2500 Du        
   6922 ****       122.2500 134.5000 137.5000 Du        
   6923 ****       122.2500 134.5000 137.7500 Du        
   6924 ****       122.2500 134.5000 138.0000 Du        
   6925 ****       122.2500 134.5000 138.2500 Du        
   6926 ****       122.2500 134.5000 138.5000 Du        
   6927 ****       122.2500 134.7500 137.2500 Du        
   6928 ****       122.2500 134.7500 137.5000 Du        
   6929 ****       122.2500 134.7500 137.7500 Du        
   6930 ****       122.2500 134.7500 138.0000 Du        
   6931 ****       122.2500 134.7500 138.2500 Du        
   6932 ****       122.2500 135.0000 137.5000 Du        
   6933 ****       122.2500 135.0000 137.7500 Du        
   6934 ****       122.2500 139.2500  94.7500 Du        
   6935 ****       122.2500 139.2500  95.0000 Du        
   6936 ****       122.2500 139.2500  95.2500 Du        
   6937 ****       122.2500 139.5000  94.7500 Du        
   6938 ****       122.2500 139.5000  95.0000 Du        
   6939 ****       122.2500 139.5000  95.2500 Du        
   6940 ****       122.2500 139.5000  95.5000 Du        
   6941 ****       122.2500 139.5000  95.7500 Du        
   6942 ****       122.2500 139.5000  96.0000 Du        
   6943 ****       122.2500 139.7500  95.0000 Du        
   6944 ****       122.2500 139.7500  95.2500 Du        
   6945 ****       122.2500 139.7500  95.5000 Du        
   6946 ****       122.2500 139.7500  95.7500 Du        
   6947 ****       122.2500 139.7500  96.0000 Du        
   6948 ****       122.2500 140.0000  95.2500 Du        
   6949 ****       122.2500 140.0000  95.5000 Du        
   6950 ****       122.2500 140.0000  95.7500 Du        
   6951 ****       122.2500 140.0000  96.0000 Du        
   6952 ****       122.2500 140.2500  95.7500 Du        
   6953 ****       122.2500 143.2500 159.2500 Du        
   6954 ****       122.2500 143.2500 159.5000 Du        
   6955 ****       122.2500 143.2500 159.7500 Du        
   6956 ****       122.2500 143.5000 158.7500 Du        
   6957 ****       122.2500 143.5000 159.0000 Du        
   6958 ****       122.2500 143.5000 159.2500 Du        
   6959 ****       122.2500 143.5000 159.5000 Du        
   6960 ****       122.2500 143.5000 159.7500 Du        
   6961 ****       122.2500 143.7500 158.7500 Du        
   6962 ****       122.2500 143.7500 159.0000 Du        
   6963 ****       122.2500 143.7500 159.2500 Du        
   6964 ****       122.2500 143.7500 159.5000 Du        
   6965 ****       122.2500 143.7500 159.7500 Du        
   6966 ****       122.2500 144.0000 158.7500 Du        
   6967 ****       122.2500 144.0000 159.0000 Du        
   6968 ****       122.2500 144.0000 159.2500 Du        
   6969 ****       122.2500 144.7500 129.0000 Du        
   6970 ****       122.2500 144.7500 129.2500 Du        
   6971 ****       122.2500 145.0000 127.5000 Du        
   6972 ****       122.2500 145.0000 127.7500 Du        
   6973 ****       122.2500 145.0000 128.0000 Du        
   6974 ****       122.2500 145.0000 128.2500 Du        
   6975 ****       122.2500 145.0000 128.5000 Du        
   6976 ****       122.2500 145.0000 128.7500 Du        
   6977 ****       122.2500 145.0000 129.0000 Du        
   6978 ****       122.2500 145.0000 129.2500 Du        
   6979 ****       122.2500 145.0000 129.5000 Du        
   6980 ****       122.2500 145.0000 129.7500 Du        
   6981 ****       122.2500 145.2500 127.5000 Du        
   6982 ****       122.2500 145.2500 127.7500 Du        
   6983 ****       122.2500 145.2500 128.0000 Du        
   6984 ****       122.2500 145.2500 128.2500 Du        
   6985 ****       122.2500 145.2500 128.5000 Du        
   6986 ****       122.2500 145.2500 128.7500 Du        
   6987 ****       122.2500 145.2500 129.0000 Du        
   6988 ****       122.2500 145.2500 129.2500 Du        
   6989 ****       122.2500 145.2500 129.5000 Du        
   6990 ****       122.2500 145.2500 129.7500 Du        
   6991 ****       122.2500 145.2500 130.0000 Du        
   6992 ****       122.2500 151.2500 151.5000 Du        
   6993 ****       122.2500 151.2500 151.7500 Du        
   6994 ****       122.2500 151.2500 152.0000 Du        
   6995 ****       122.2500 151.5000 151.7500 Du        
   6996 ****       122.2500 151.5000 152.0000 Du        
   6997 ****       122.2500 151.5000 152.2500 Du        
   6998 ****       122.2500 151.7500 151.5000 Du        
   6999 ****       122.2500 151.7500 151.7500 Du        
   7000 ****       122.2500 151.7500 152.0000 Du        
   7001 ****       122.2500 151.7500 152.2500 Du        
   7002 ****       122.2500 151.7500 152.5000 Du        
   7003 ****       122.2500 152.0000 151.7500 Du        
   7004 ****       122.2500 152.0000 152.0000 Du        
   7005 ****       122.2500 152.0000 152.2500 Du        
   7006 ****       122.2500 152.0000 152.5000 Du        
   7007 ****       122.2500 152.0000 152.7500 Du        
   7008 ****       122.2500 152.2500 151.7500 Du        
   7009 ****       122.2500 152.2500 152.0000 Du        
   7010 ****       122.2500 152.2500 152.2500 Du        
   7011 ****       122.2500 152.2500 152.5000 Du        
   7012 ****       122.2500 152.2500 152.7500 Du        
   7013 ****       122.2500 152.2500 153.0000 Du        
   7014 ****       122.2500 152.5000 151.7500 Du        
   7015 ****       122.2500 152.5000 152.0000 Du        
   7016 ****       122.2500 152.5000 152.2500 Du        
   7017 ****       122.2500 152.5000 152.5000 Du        
   7018 ****       122.2500 152.5000 152.7500 Du        
   7019 ****       122.2500 152.5000 153.0000 Du        
   7020 ****       122.2500 152.7500 152.0000 Du        
   7021 ****       122.2500 152.7500 152.2500 Du        
   7022 ****       122.2500 152.7500 152.5000 Du        
   7023 ****       122.2500 152.7500 152.7500 Du        
   7024 ****       122.2500 152.7500 153.0000 Du        
   7025 ****       122.2500 152.7500 153.2500 Du        
   7026 ****       122.2500 152.7500 156.7500 Du        
   7027 ****       122.2500 152.7500 157.0000 Du        
   7028 ****       122.2500 152.7500 157.2500 Du        
   7029 ****       122.2500 152.7500 157.5000 Du        
   7030 ****       122.2500 153.0000 152.2500 Du        
   7031 ****       122.2500 153.0000 152.5000 Du        
   7032 ****       122.2500 153.0000 152.7500 Du        
   7033 ****       122.2500 153.0000 153.0000 Du        
   7034 ****       122.2500 153.0000 153.2500 Du        
   7035 ****       122.2500 153.0000 156.2500 Du        
   7036 ****       122.2500 153.0000 156.5000 Du        
   7037 ****       122.2500 153.0000 156.7500 Du        
   7038 ****       122.2500 153.0000 157.0000 Du        
   7039 ****       122.2500 153.0000 157.2500 Du        
   7040 ****       122.2500 153.0000 157.5000 Du        
   7041 ****       122.2500 153.2500 156.0000 Du        
   7042 ****       122.2500 153.2500 156.2500 Du        
   7043 ****       122.2500 153.2500 156.5000 Du        
   7044 ****       122.2500 153.2500 156.7500 Du        
   7045 ****       122.2500 153.2500 157.0000 Du        
   7046 ****       122.2500 153.2500 157.2500 Du        
   7047 ****       122.2500 153.2500 157.5000 Du        
   7048 ****       122.2500 154.7500  98.0000 Du        
   7049 ****       122.2500 154.7500  98.2500 Du        
   7050 ****       122.2500 155.0000  97.7500 Du        
   7051 ****       122.2500 155.0000  98.0000 Du        
   7052 ****       122.2500 155.0000  98.2500 Du        
   7053 ****       122.2500 155.0000 107.0000 Du        
   7054 ****       122.2500 155.0000 107.2500 Du        
   7055 ****       122.2500 155.2500  97.5000 Du        
   7056 ****       122.2500 155.2500  97.7500 Du        
   7057 ****       122.2500 155.2500  98.0000 Du        
   7058 ****       122.2500 155.2500  98.2500 Du        
   7059 ****       122.2500 155.2500 107.0000 Du        
   7060 ****       122.2500 155.5000  97.5000 Du        
   7061 ****       122.2500 155.5000  97.7500 Du        
   7062 ****       122.2500 155.5000  98.0000 Du        
   7063 ****       122.2500 155.5000  98.2500 Du        
   7064 ****       122.2500 155.7500  97.5000 Du        
   7065 ****       122.2500 155.7500  97.7500 Du        
   7066 ****       122.2500 155.7500  98.0000 Du        
   7067 ****       122.2500 155.7500  98.2500 Du        
   7068 ****       122.2500 155.7500  98.5000 Du        
   7069 ****       122.2500 156.0000  97.7500 Du        
   7070 ****       122.2500 156.0000  98.0000 Du        
   7071 ****       122.2500 156.0000  98.2500 Du        
   7072 ****       122.2500 156.0000  98.5000 Du        
   7073 ****       122.2500 161.0000 156.2500 Du        
   7074 ****       122.2500 161.0000 156.5000 Du        
   7075 ****       122.2500 161.0000 156.7500 Du        
   7076 ****       122.2500 161.0000 157.0000 Du        
   7077 ****       122.2500 161.0000 157.2500 Du        
   7078 ****       122.2500 161.2500 156.0000 Du        
   7079 ****       122.2500 161.2500 156.2500 Du        
   7080 ****       122.2500 161.2500 156.5000 Du        
   7081 ****       122.2500 161.2500 156.7500 Du        
   7082 ****       122.2500 161.2500 157.0000 Du        
   7083 ****       122.2500 161.2500 157.2500 Du        
   7084 ****       122.2500 161.2500 157.5000 Du        
   7085 ****       122.2500 161.5000 156.5000 Du        
   7086 ****       122.2500 161.5000 156.7500 Du        
   7087 ****       122.2500 161.5000 157.0000 Du        
   7088 ****       122.2500 161.5000 157.2500 Du        
   7089 ****       122.2500 161.5000 157.5000 Du        
   7090 ****       122.2500 161.5000 157.7500 Du        
   7091 ****       122.2500 161.7500 156.5000 Du        
   7092 ****       122.2500 161.7500 156.7500 Du        
   7093 ****       122.2500 161.7500 157.0000 Du        
   7094 ****       122.2500 161.7500 157.2500 Du        
   7095 ****       122.2500 161.7500 157.5000 Du        
   7096 ****       122.2500 161.7500 157.7500 Du        
   7097 ****       122.2500 161.7500 158.0000 Du        
   7098 ****       122.2500 162.0000 156.7500 Du        
   7099 ****       122.2500 162.0000 157.0000 Du        
   7100 ****       122.2500 162.0000 157.2500 Du        
   7101 ****       122.2500 162.0000 157.5000 Du        
   7102 ****       122.2500 162.0000 157.7500 Du        
   7103 ****       122.2500 162.0000 158.0000 Du        
   7104 ****       122.2500 162.2500 156.7500 Du        
   7105 ****       122.2500 162.2500 157.0000 Du        
   7106 ****       122.2500 162.2500 157.2500 Du        
   7107 ****       122.2500 162.2500 157.5000 Du        
   7108 ****       122.2500 162.2500 157.7500 Du        
   7109 ****       122.2500 162.2500 158.0000 Du        
   7110 ****       122.2500 163.2500 166.2500 Du        
   7111 ****       122.2500 163.2500 166.5000 Du        
   7112 ****       122.2500 163.2500 166.7500 Du        
   7113 ****       122.2500 163.2500 167.0000 Du        
   7114 ****       122.2500 163.5000 166.2500 Du        
   7115 ****       122.2500 163.5000 166.5000 Du        
   7116 ****       122.2500 163.5000 166.7500 Du        
   7117 ****       122.2500 163.5000 167.0000 Du        
   7118 ****       122.2500 163.5000 167.2500 Du        
   7119 ****       122.2500 163.5000 167.5000 Du        
   7120 ****       122.2500 163.7500 166.2500 Du        
   7121 ****       122.2500 163.7500 166.5000 Du        
   7122 ****       122.2500 163.7500 166.7500 Du        
   7123 ****       122.2500 163.7500 167.0000 Du        
   7124 ****       122.2500 163.7500 167.2500 Du        
   7125 ****       122.2500 163.7500 167.5000 Du        
   7126 ****       122.2500 164.0000 166.2500 Du        
   7127 ****       122.2500 164.0000 166.5000 Du        
   7128 ****       122.2500 164.0000 166.7500 Du        
   7129 ****       122.2500 164.0000 167.0000 Du        
   7130 ****       122.2500 164.0000 167.2500 Du        
   7131 ****       122.2500 164.0000 167.5000 Du        
   7132 ****       122.2500 164.2500 166.2500 Du        
   7133 ****       122.2500 164.2500 166.5000 Du        
   7134 ****       122.2500 164.2500 166.7500 Du        
   7135 ****       122.2500 164.2500 167.0000 Du        
   7136 ****       122.2500 164.5000 166.5000 Du        
   7137 ****       122.2500 164.5000 166.7500 Du        
   7138 ****       122.2500 164.5000 167.0000 Du        
   7139 ****       122.5000 122.0000 122.0000 Du        
   7140 ****       122.5000 122.2500 121.7500 Du        
   7141 ****       122.5000 122.2500 122.0000 Du        
   7142 ****       122.5000 122.2500 122.2500 Du        
   7143 ****       122.5000 122.2500 122.5000 Du        
   7144 ****       122.5000 122.5000 121.2500 Du        
   7145 ****       122.5000 122.5000 121.5000 Du        
   7146 ****       122.5000 122.5000 121.7500 Du        
   7147 ****       122.5000 122.5000 122.0000 Du        
   7148 ****       122.5000 122.5000 122.2500 Du        
   7149 ****       122.5000 122.5000 122.5000 Du        
   7150 ****       122.5000 122.5000 122.7500 Du        
   7151 ****       122.5000 122.5000 123.0000 Du        
   7152 ****       122.5000 122.5000 123.2500 Du        
   7153 ****       122.5000 122.7500 120.7500 Du        
   7154 ****       122.5000 122.7500 121.0000 Du        
   7155 ****       122.5000 122.7500 121.2500 Du        
   7156 ****       122.5000 122.7500 121.5000 Du        
   7157 ****       122.5000 122.7500 121.7500 Du        
   7158 ****       122.5000 122.7500 122.0000 Du        
   7159 ****       122.5000 122.7500 122.2500 Du        
   7160 ****       122.5000 122.7500 122.5000 Du        
   7161 ****       122.5000 122.7500 122.7500 Du        
   7162 ****       122.5000 123.0000 120.5000 Du        
   7163 ****       122.5000 123.0000 120.7500 Du        
   7164 ****       122.5000 123.0000 121.0000 Du        
   7165 ****       122.5000 123.0000 121.2500 Du        
   7166 ****       122.5000 123.0000 121.5000 Du        
   7167 ****       122.5000 123.0000 121.7500 Du        
   7168 ****       122.5000 123.0000 122.0000 Du        
   7169 ****       122.5000 123.2500 119.2500 Du        
   7170 ****       122.5000 123.2500 119.5000 Du        
   7171 ****       122.5000 123.2500 119.7500 Du        
   7172 ****       122.5000 123.2500 120.0000 Du        
   7173 ****       122.5000 123.2500 120.2500 Du        
   7174 ****       122.5000 123.2500 120.5000 Du        
   7175 ****       122.5000 123.2500 120.7500 Du        
   7176 ****       122.5000 123.2500 121.0000 Du        
   7177 ****       122.5000 123.2500 121.2500 Du        
   7178 ****       122.5000 123.2500 121.5000 Du        
   7179 ****       122.5000 123.5000 118.7500 Du        
   7180 ****       122.5000 123.5000 119.0000 Du        
   7181 ****       122.5000 123.5000 119.2500 Du        
   7182 ****       122.5000 123.5000 119.5000 Du        
   7183 ****       122.5000 123.5000 119.7500 Du        
   7184 ****       122.5000 123.5000 120.0000 Du        
   7185 ****       122.5000 123.5000 120.2500 Du        
   7186 ****       122.5000 123.5000 120.5000 Du        
   7187 ****       122.5000 123.5000 120.7500 Du        
   7188 ****       122.5000 123.5000 121.0000 Du        
   7189 ****       122.5000 123.7500 118.7500 Du        
   7190 ****       122.5000 123.7500 119.0000 Du        
   7191 ****       122.5000 123.7500 119.2500 Du        
   7192 ****       122.5000 123.7500 119.5000 Du        
   7193 ****       122.5000 123.7500 119.7500 Du        
   7194 ****       122.5000 123.7500 120.0000 Du        
   7195 ****       122.5000 123.7500 120.2500 Du        
   7196 ****       122.5000 123.7500 120.5000 Du        
   7197 ****       122.5000 123.7500 120.7500 Du        
   7198 ****       122.5000 124.0000 119.0000 Du        
   7199 ****       122.5000 124.0000 119.2500 Du        
   7200 ****       122.5000 124.0000 119.5000 Du        
   7201 ****       122.5000 124.0000 119.7500 Du        
   7202 ****       122.5000 124.0000 120.0000 Du        
   7203 ****       122.5000 124.0000 120.2500 Du        
   7204 ****       122.5000 124.0000 120.5000 Du        
   7205 ****       122.5000 124.2500 111.0000 Du        
   7206 ****       122.5000 124.2500 119.5000 Du        
   7207 ****       122.5000 124.2500 119.7500 Du        
   7208 ****       122.5000 124.2500 120.0000 Du        
   7209 ****       122.5000 124.2500 120.2500 Du        
   7210 ****       122.5000 124.2500 120.5000 Du        
   7211 ****       122.5000 124.5000 110.7500 Du        
   7212 ****       122.5000 124.5000 111.0000 Du        
   7213 ****       122.5000 124.5000 111.2500 Du        
   7214 ****       122.5000 124.5000 119.7500 Du        
   7215 ****       122.5000 124.5000 120.0000 Du        
   7216 ****       122.5000 124.5000 120.2500 Du        
   7217 ****       122.5000 124.7500 111.0000 Du        
   7218 ****       122.5000 124.7500 111.2500 Du        
   7219 ****       122.5000 125.0000 111.0000 Du        
   7220 ****       122.5000 125.0000 111.2500 Du        
   7221 ****       122.5000 131.2500 162.0000 Du        
   7222 ****       122.5000 131.5000 161.7500 Du        
   7223 ****       122.5000 131.5000 162.0000 Du        
   7224 ****       122.5000 131.5000 162.2500 Du        
   7225 ****       122.5000 131.5000 162.5000 Du        
   7226 ****       122.5000 131.7500 161.7500 Du        
   7227 ****       122.5000 131.7500 162.0000 Du        
   7228 ****       122.5000 131.7500 162.2500 Du        
   7229 ****       122.5000 131.7500 162.5000 Du        
   7230 ****       122.5000 132.0000 161.5000 Du        
   7231 ****       122.5000 132.0000 161.7500 Du        
   7232 ****       122.5000 132.0000 162.0000 Du        
   7233 ****       122.5000 132.0000 162.2500 Du        
   7234 ****       122.5000 132.0000 162.5000 Du        
   7235 ****       122.5000 132.2500 161.7500 Du        
   7236 ****       122.5000 132.2500 162.0000 Du        
   7237 ****       122.5000 134.0000 136.7500 Du        
   7238 ****       122.5000 134.0000 137.0000 Du        
   7239 ****       122.5000 134.0000 137.2500 Du        
   7240 ****       122.5000 134.2500 136.7500 Du        
   7241 ****       122.5000 134.2500 137.0000 Du        
   7242 ****       122.5000 134.2500 137.2500 Du        
   7243 ****       122.5000 134.2500 137.5000 Du        
   7244 ****       122.5000 134.2500 137.7500 Du        
   7245 ****       122.5000 134.2500 138.0000 Du        
   7246 ****       122.5000 134.2500 138.2500 Du        
   7247 ****       122.5000 134.5000 137.0000 Du        
   7248 ****       122.5000 134.5000 137.2500 Du        
   7249 ****       122.5000 134.5000 137.5000 Du        
   7250 ****       122.5000 134.5000 137.7500 Du        
   7251 ****       122.5000 134.5000 138.0000 Du        
   7252 ****       122.5000 134.5000 138.2500 Du        
   7253 ****       122.5000 134.5000 138.5000 Du        
   7254 ****       122.5000 134.5000 138.7500 Du        
   7255 ****       122.5000 134.7500 137.2500 Du        
   7256 ****       122.5000 134.7500 137.5000 Du        
   7257 ****       122.5000 134.7500 137.7500 Du        
   7258 ****       122.5000 134.7500 138.0000 Du        
   7259 ****       122.5000 134.7500 138.2500 Du        
   7260 ****       122.5000 135.0000 137.5000 Du        
   7261 ****       122.5000 135.0000 137.7500 Du        
   7262 ****       122.5000 135.0000 138.0000 Du        
   7263 ****       122.5000 139.0000  94.7500 Du        
   7264 ****       122.5000 139.2500  94.5000 Du        
   7265 ****       122.5000 139.2500  94.7500 Du        
   7266 ****       122.5000 139.2500  95.0000 Du        
   7267 ****       122.5000 139.2500  95.2500 Du        
   7268 ****       122.5000 139.2500  95.5000 Du        
   7269 ****       122.5000 139.2500  95.7500 Du        
   7270 ****       122.5000 139.2500  96.0000 Du        
   7271 ****       122.5000 139.2500  96.2500 Du        
   7272 ****       122.5000 139.5000  94.7500 Du        
   7273 ****       122.5000 139.5000  95.0000 Du        
   7274 ****       122.5000 139.5000  95.2500 Du        
   7275 ****       122.5000 139.5000  95.5000 Du        
   7276 ****       122.5000 139.5000  95.7500 Du        
   7277 ****       122.5000 139.5000  96.0000 Du        
   7278 ****       122.5000 139.5000  96.2500 Du        
   7279 ****       122.5000 139.7500  95.0000 Du        
   7280 ****       122.5000 139.7500  95.2500 Du        
   7281 ****       122.5000 139.7500  95.5000 Du        
   7282 ****       122.5000 139.7500  95.7500 Du        
   7283 ****       122.5000 139.7500  96.0000 Du        
   7284 ****       122.5000 139.7500  96.2500 Du        
   7285 ****       122.5000 140.0000  95.5000 Du        
   7286 ****       122.5000 140.0000  95.7500 Du        
   7287 ****       122.5000 140.0000  96.0000 Du        
   7288 ****       122.5000 140.2500  95.7500 Du        
   7289 ****       122.5000 140.2500  96.0000 Du        
   7290 ****       122.5000 143.5000 159.0000 Du        
   7291 ****       122.5000 143.5000 159.2500 Du        
   7292 ****       122.5000 143.5000 159.5000 Du        
   7293 ****       122.5000 143.7500 159.0000 Du        
   7294 ****       122.5000 143.7500 159.2500 Du        
   7295 ****       122.5000 143.7500 159.5000 Du        
   7296 ****       122.5000 144.0000 159.2500 Du        
   7297 ****       122.5000 144.7500 119.0000 Du        
   7298 ****       122.5000 144.7500 129.5000 Du        
   7299 ****       122.5000 145.0000 118.7500 Du        
   7300 ****       122.5000 145.0000 119.0000 Du        
   7301 ****       122.5000 145.0000 129.0000 Du        
   7302 ****       122.5000 145.0000 129.2500 Du        
   7303 ****       122.5000 145.0000 129.5000 Du        
   7304 ****       122.5000 145.0000 129.7500 Du        
   7305 ****       122.5000 145.0000 130.0000 Du        
   7306 ****       122.5000 145.2500 118.7500 Du        
   7307 ****       122.5000 145.2500 119.0000 Du        
   7308 ****       122.5000 145.2500 128.0000 Du        
   7309 ****       122.5000 145.2500 128.2500 Du        
   7310 ****       122.5000 145.2500 128.5000 Du        
   7311 ****       122.5000 145.2500 128.7500 Du        
   7312 ****       122.5000 145.2500 129.0000 Du        
   7313 ****       122.5000 145.2500 129.2500 Du        
   7314 ****       122.5000 145.2500 129.5000 Du        
   7315 ****       122.5000 145.2500 129.7500 Du        
   7316 ****       122.5000 145.2500 130.0000 Du        
   7317 ****       122.5000 145.2500 130.2500 Du        
   7318 ****       122.5000 151.0000 151.5000 Du        
   7319 ****       122.5000 151.2500 151.5000 Du        
   7320 ****       122.5000 151.2500 151.7500 Du        
   7321 ****       122.5000 151.2500 152.0000 Du        
   7322 ****       122.5000 151.5000 151.5000 Du        
   7323 ****       122.5000 151.5000 151.7500 Du        
   7324 ****       122.5000 151.5000 152.0000 Du        
   7325 ****       122.5000 151.5000 152.2500 Du        
   7326 ****       122.5000 151.7500 151.5000 Du        
   7327 ****       122.5000 151.7500 151.7500 Du        
   7328 ****       122.5000 151.7500 152.0000 Du        
   7329 ****       122.5000 151.7500 152.2500 Du        
   7330 ****       122.5000 151.7500 152.5000 Du        
   7331 ****       122.5000 152.0000 151.5000 Du        
   7332 ****       122.5000 152.0000 151.7500 Du        
   7333 ****       122.5000 152.0000 152.0000 Du        
   7334 ****       122.5000 152.0000 152.2500 Du        
   7335 ****       122.5000 152.0000 152.5000 Du        
   7336 ****       122.5000 152.0000 152.7500 Du        
   7337 ****       122.5000 152.2500 151.5000 Du        
   7338 ****       122.5000 152.2500 151.7500 Du        
   7339 ****       122.5000 152.2500 152.0000 Du        
   7340 ****       122.5000 152.2500 152.2500 Du        
   7341 ****       122.5000 152.2500 152.5000 Du        
   7342 ****       122.5000 152.2500 152.7500 Du        
   7343 ****       122.5000 152.2500 153.0000 Du        
   7344 ****       122.5000 152.5000 151.5000 Du        
   7345 ****       122.5000 152.5000 151.7500 Du        
   7346 ****       122.5000 152.5000 152.0000 Du        
   7347 ****       122.5000 152.5000 152.2500 Du        
   7348 ****       122.5000 152.5000 152.5000 Du        
   7349 ****       122.5000 152.5000 152.7500 Du        
   7350 ****       122.5000 152.5000 153.0000 Du        
   7351 ****       122.5000 152.5000 153.2500 Du        
   7352 ****       122.5000 152.7500 151.5000 Du        
   7353 ****       122.5000 152.7500 151.7500 Du        
   7354 ****       122.5000 152.7500 152.0000 Du        
   7355 ****       122.5000 152.7500 152.2500 Du        
   7356 ****       122.5000 152.7500 152.5000 Du        
   7357 ****       122.5000 152.7500 152.7500 Du        
   7358 ****       122.5000 152.7500 153.0000 Du        
   7359 ****       122.5000 152.7500 153.2500 Du        
   7360 ****       122.5000 152.7500 153.5000 Du        
   7361 ****       122.5000 152.7500 156.5000 Du        
   7362 ****       122.5000 152.7500 156.7500 Du        
   7363 ****       122.5000 152.7500 157.0000 Du        
   7364 ****       122.5000 152.7500 157.2500 Du        
   7365 ****       122.5000 152.7500 157.5000 Du        
   7366 ****       122.5000 152.7500 157.7500 Du        
   7367 ****       122.5000 153.0000 152.5000 Du        
   7368 ****       122.5000 153.0000 152.7500 Du        
   7369 ****       122.5000 153.0000 153.0000 Du        
   7370 ****       122.5000 153.0000 156.0000 Du        
   7371 ****       122.5000 153.0000 156.2500 Du        
   7372 ****       122.5000 153.0000 156.5000 Du        
   7373 ****       122.5000 153.0000 156.7500 Du        
   7374 ****       122.5000 153.0000 157.0000 Du        
   7375 ****       122.5000 153.0000 157.2500 Du        
   7376 ****       122.5000 153.0000 157.5000 Du        
   7377 ****       122.5000 153.0000 157.7500 Du        
   7378 ****       122.5000 153.2500 155.7500 Du        
   7379 ****       122.5000 153.2500 156.0000 Du        
   7380 ****       122.5000 153.2500 156.2500 Du        
   7381 ****       122.5000 153.2500 156.5000 Du        
   7382 ****       122.5000 153.2500 156.7500 Du        
   7383 ****       122.5000 153.2500 157.0000 Du        
   7384 ****       122.5000 153.2500 157.2500 Du        
   7385 ****       122.5000 153.2500 157.5000 Du        
   7386 ****       122.5000 153.2500 157.7500 Du        
   7387 ****       122.5000 153.5000 156.2500 Du        
   7388 ****       122.5000 153.5000 156.5000 Du        
   7389 ****       122.5000 153.5000 156.7500 Du        
   7390 ****       122.5000 153.5000 157.0000 Du        
   7391 ****       122.5000 153.5000 157.2500 Du        
   7392 ****       122.5000 153.5000 157.5000 Du        
   7393 ****       122.5000 155.0000  98.0000 Du        
   7394 ****       122.5000 155.0000 107.2500 Du        
   7395 ****       122.5000 155.2500  97.7500 Du        
   7396 ****       122.5000 155.2500  98.0000 Du        
   7397 ****       122.5000 155.2500 107.0000 Du        
   7398 ****       122.5000 155.2500 107.2500 Du        
   7399 ****       122.5000 155.5000  97.7500 Du        
   7400 ****       122.5000 155.5000  98.0000 Du        
   7401 ****       122.5000 155.7500  97.5000 Du        
   7402 ****       122.5000 155.7500  97.7500 Du        
   7403 ****       122.5000 155.7500  98.0000 Du        
   7404 ****       122.5000 156.0000  97.5000 Du        
   7405 ****       122.5000 156.0000  97.7500 Du        
   7406 ****       122.5000 156.0000  98.0000 Du        
   7407 ****       122.5000 156.0000 106.2500 Du        
   7408 ****       122.5000 158.2500 150.5000 Du        
   7409 ****       122.5000 158.2500 150.7500 Du        
   7410 ****       122.5000 158.5000 150.7500 Du        
   7411 ****       122.5000 158.7500 150.5000 Du        
   7412 ****       122.5000 158.7500 150.7500 Du        
   7413 ****       122.5000 158.7500 151.0000 Du        
   7414 ****       122.5000 159.0000 151.0000 Du        
   7415 ****       122.5000 160.7500 156.7500 Du        
   7416 ****       122.5000 160.7500 157.0000 Du        
   7417 ****       122.5000 161.0000 156.2500 Du        
   7418 ****       122.5000 161.0000 156.5000 Du        
   7419 ****       122.5000 161.0000 156.7500 Du        
   7420 ****       122.5000 161.0000 157.0000 Du        
   7421 ****       122.5000 161.0000 157.2500 Du        
   7422 ****       122.5000 161.0000 157.5000 Du        
   7423 ****       122.5000 161.2500 156.0000 Du        
   7424 ****       122.5000 161.2500 156.2500 Du        
   7425 ****       122.5000 161.2500 156.5000 Du        
   7426 ****       122.5000 161.2500 156.7500 Du        
   7427 ****       122.5000 161.2500 157.0000 Du        
   7428 ****       122.5000 161.2500 157.2500 Du        
   7429 ****       122.5000 161.2500 157.5000 Du        
   7430 ****       122.5000 161.5000 156.0000 Du        
   7431 ****       122.5000 161.5000 156.2500 Du        
   7432 ****       122.5000 161.5000 156.5000 Du        
   7433 ****       122.5000 161.5000 156.7500 Du        
   7434 ****       122.5000 161.5000 157.0000 Du        
   7435 ****       122.5000 161.5000 157.2500 Du        
   7436 ****       122.5000 161.5000 157.5000 Du        
   7437 ****       122.5000 161.5000 157.7500 Du        
   7438 ****       122.5000 161.7500 156.2500 Du        
   7439 ****       122.5000 161.7500 156.5000 Du        
   7440 ****       122.5000 161.7500 156.7500 Du        
   7441 ****       122.5000 161.7500 157.0000 Du        
   7442 ****       122.5000 161.7500 157.2500 Du        
   7443 ****       122.5000 161.7500 157.5000 Du        
   7444 ****       122.5000 161.7500 157.7500 Du        
   7445 ****       122.5000 162.0000 156.5000 Du        
   7446 ****       122.5000 162.0000 156.7500 Du        
   7447 ****       122.5000 162.0000 157.0000 Du        
   7448 ****       122.5000 162.0000 157.2500 Du        
   7449 ****       122.5000 162.0000 157.5000 Du        
   7450 ****       122.5000 162.0000 157.7500 Du        
   7451 ****       122.5000 162.0000 158.0000 Du        
   7452 ****       122.5000 162.2500 156.7500 Du        
   7453 ****       122.5000 162.2500 157.0000 Du        
   7454 ****       122.5000 162.2500 157.2500 Du        
   7455 ****       122.5000 162.2500 157.5000 Du        
   7456 ****       122.5000 162.2500 157.7500 Du        
   7457 ****       122.5000 163.2500 166.7500 Du        
   7458 ****       122.5000 163.2500 167.0000 Du        
   7459 ****       122.5000 163.5000 166.7500 Du        
   7460 ****       122.5000 163.5000 167.0000 Du        
   7461 ****       122.5000 163.5000 167.2500 Du        
   7462 ****       122.5000 163.5000 167.5000 Du        
   7463 ****       122.5000 163.7500 166.7500 Du        
   7464 ****       122.5000 163.7500 167.0000 Du        
   7465 ****       122.5000 163.7500 167.2500 Du        
   7466 ****       122.5000 163.7500 167.5000 Du        
   7467 ****       122.5000 164.0000 166.7500 Du        
   7468 ****       122.5000 164.0000 167.0000 Du        
   7469 ****       122.5000 164.0000 167.2500 Du        
   7470 ****       122.5000 164.0000 167.5000 Du        
   7471 ****       122.5000 164.2500 166.7500 Du        
   7472 ****       122.5000 164.2500 167.0000 Du        
   7473 ****       122.7500 121.0000 136.0000 Du        
   7474 ****       122.7500 122.0000 122.0000 Du        
   7475 ****       122.7500 122.2500 121.7500 Du        
   7476 ****       122.7500 122.2500 122.0000 Du        
   7477 ****       122.7500 122.2500 122.2500 Du        
   7478 ****       122.7500 122.5000 121.0000 Du        
   7479 ****       122.7500 122.5000 121.2500 Du        
   7480 ****       122.7500 122.5000 121.5000 Du        
   7481 ****       122.7500 122.5000 121.7500 Du        
   7482 ****       122.7500 122.5000 122.0000 Du        
   7483 ****       122.7500 122.5000 122.2500 Du        
   7484 ****       122.7500 122.5000 122.5000 Du        
   7485 ****       122.7500 122.5000 122.7500 Du        
   7486 ****       122.7500 122.7500 120.7500 Du        
   7487 ****       122.7500 122.7500 121.0000 Du        
   7488 ****       122.7500 122.7500 121.2500 Du        
   7489 ****       122.7500 122.7500 121.5000 Du        
   7490 ****       122.7500 122.7500 121.7500 Du        
   7491 ****       122.7500 122.7500 122.0000 Du        
   7492 ****       122.7500 122.7500 122.2500 Du        
   7493 ****       122.7500 122.7500 122.5000 Du        
   7494 ****       122.7500 122.7500 122.7500 Du        
   7495 ****       122.7500 122.7500 123.0000 Du        
   7496 ****       122.7500 122.7500 123.2500 Du        
   7497 ****       122.7500 123.0000 119.0000 Du        
   7498 ****       122.7500 123.0000 120.0000 Du        
   7499 ****       122.7500 123.0000 120.2500 Du        
   7500 ****       122.7500 123.0000 120.5000 Du        
   7501 ****       122.7500 123.0000 120.7500 Du        
   7502 ****       122.7500 123.0000 121.0000 Du        
   7503 ****       122.7500 123.0000 121.2500 Du        
   7504 ****       122.7500 123.0000 121.5000 Du        
   7505 ****       122.7500 123.0000 121.7500 Du        
   7506 ****       122.7500 123.0000 122.0000 Du        
   7507 ****       122.7500 123.0000 122.2500 Du        
   7508 ****       122.7500 123.0000 122.5000 Du        
   7509 ****       122.7500 123.2500 118.7500 Du        
   7510 ****       122.7500 123.2500 119.0000 Du        
   7511 ****       122.7500 123.2500 119.2500 Du        
   7512 ****       122.7500 123.2500 119.5000 Du        
   7513 ****       122.7500 123.2500 119.7500 Du        
   7514 ****       122.7500 123.2500 120.0000 Du        
   7515 ****       122.7500 123.2500 120.2500 Du        
   7516 ****       122.7500 123.2500 120.5000 Du        
   7517 ****       122.7500 123.2500 120.7500 Du        
   7518 ****       122.7500 123.2500 121.0000 Du        
   7519 ****       122.7500 123.2500 121.2500 Du        
   7520 ****       122.7500 123.2500 121.5000 Du        
   7521 ****       122.7500 123.2500 121.7500 Du        
   7522 ****       122.7500 123.2500 122.0000 Du        
   7523 ****       122.7500 123.5000 118.5000 Du        
   7524 ****       122.7500 123.5000 118.7500 Du        
   7525 ****       122.7500 123.5000 119.0000 Du        
   7526 ****       122.7500 123.5000 119.2500 Du        
   7527 ****       122.7500 123.5000 119.5000 Du        
   7528 ****       122.7500 123.5000 119.7500 Du        
   7529 ****       122.7500 123.5000 120.0000 Du        
   7530 ****       122.7500 123.5000 120.2500 Du        
   7531 ****       122.7500 123.5000 120.5000 Du        
   7532 ****       122.7500 123.5000 120.7500 Du        
   7533 ****       122.7500 123.5000 121.0000 Du        
   7534 ****       122.7500 123.5000 121.2500 Du        
   7535 ****       122.7500 123.5000 121.5000 Du        
   7536 ****       122.7500 123.7500 118.5000 Du        
   7537 ****       122.7500 123.7500 118.7500 Du        
   7538 ****       122.7500 123.7500 119.0000 Du        
   7539 ****       122.7500 123.7500 119.2500 Du        
   7540 ****       122.7500 123.7500 119.5000 Du        
   7541 ****       122.7500 123.7500 119.7500 Du        
   7542 ****       122.7500 123.7500 120.0000 Du        
   7543 ****       122.7500 123.7500 120.2500 Du        
   7544 ****       122.7500 123.7500 120.5000 Du        
   7545 ****       122.7500 123.7500 120.7500 Du        
   7546 ****       122.7500 123.7500 121.0000 Du        
   7547 ****       122.7500 123.7500 121.2500 Du        
   7548 ****       122.7500 124.0000 111.0000 Du        
   7549 ****       122.7500 124.0000 111.2500 Du        
   7550 ****       122.7500 124.0000 119.0000 Du        
   7551 ****       122.7500 124.0000 119.2500 Du        
   7552 ****       122.7500 124.0000 119.5000 Du        
   7553 ****       122.7500 124.0000 119.7500 Du        
   7554 ****       122.7500 124.0000 120.0000 Du        
   7555 ****       122.7500 124.0000 120.2500 Du        
   7556 ****       122.7500 124.0000 120.5000 Du        
   7557 ****       122.7500 124.0000 120.7500 Du        
   7558 ****       122.7500 124.0000 121.0000 Du        
   7559 ****       122.7500 124.2500 111.0000 Du        
   7560 ****       122.7500 124.2500 111.2500 Du        
   7561 ****       122.7500 124.2500 119.5000 Du        
   7562 ****       122.7500 124.2500 119.7500 Du        
   7563 ****       122.7500 124.2500 120.0000 Du        
   7564 ****       122.7500 124.2500 120.2500 Du        
   7565 ****       122.7500 124.2500 120.5000 Du        
   7566 ****       122.7500 124.2500 120.7500 Du        
   7567 ****       122.7500 124.5000 111.0000 Du        
   7568 ****       122.7500 124.5000 111.2500 Du        
   7569 ****       122.7500 124.5000 111.5000 Du        
   7570 ****       122.7500 124.5000 119.7500 Du        
   7571 ****       122.7500 124.5000 120.0000 Du        
   7572 ****       122.7500 124.5000 120.2500 Du        
   7573 ****       122.7500 124.5000 120.5000 Du        
   7574 ****       122.7500 124.5000 120.7500 Du        
   7575 ****       122.7500 124.7500 111.0000 Du        
   7576 ****       122.7500 124.7500 111.2500 Du        
   7577 ****       122.7500 124.7500 120.0000 Du        
   7578 ****       122.7500 124.7500 120.2500 Du        
   7579 ****       122.7500 124.7500 120.5000 Du        
   7580 ****       122.7500 125.0000 111.2500 Du        
   7581 ****       122.7500 131.0000 162.0000 Du        
   7582 ****       122.7500 131.2500 162.0000 Du        
   7583 ****       122.7500 131.2500 162.2500 Du        
   7584 ****       122.7500 131.2500 162.5000 Du        
   7585 ****       122.7500 131.5000 162.0000 Du        
   7586 ****       122.7500 131.5000 162.2500 Du        
   7587 ****       122.7500 131.5000 162.5000 Du        
   7588 ****       122.7500 131.5000 162.7500 Du        
   7589 ****       122.7500 131.7500 161.7500 Du        
   7590 ****       122.7500 131.7500 162.0000 Du        
   7591 ****       122.7500 131.7500 162.2500 Du        
   7592 ****       122.7500 131.7500 162.5000 Du        
   7593 ****       122.7500 131.7500 162.7500 Du        
   7594 ****       122.7500 131.7500 163.0000 Du        
   7595 ****       122.7500 132.0000 161.7500 Du        
   7596 ****       122.7500 132.0000 162.0000 Du        
   7597 ****       122.7500 132.0000 162.2500 Du        
   7598 ****       122.7500 132.0000 162.5000 Du        
   7599 ****       122.7500 132.2500 161.7500 Du        
   7600 ****       122.7500 132.2500 162.0000 Du        
   7601 ****       122.7500 134.0000 136.7500 Du        
   7602 ****       122.7500 134.0000 137.0000 Du        
   7603 ****       122.7500 134.0000 137.2500 Du        
   7604 ****       122.7500 134.2500 136.7500 Du        
   7605 ****       122.7500 134.2500 137.0000 Du        
   7606 ****       122.7500 134.2500 137.2500 Du        
   7607 ****       122.7500 134.2500 137.5000 Du        
   7608 ****       122.7500 134.2500 137.7500 Du        
   7609 ****       122.7500 134.2500 138.0000 Du        
   7610 ****       122.7500 134.2500 138.2500 Du        
   7611 ****       122.7500 134.2500 139.2500 Du        
   7612 ****       122.7500 134.2500 139.7500 Du        
   7613 ****       122.7500 134.2500 140.0000 Du        
   7614 ****       122.7500 134.5000 137.0000 Du        
   7615 ****       122.7500 134.5000 137.2500 Du        
   7616 ****       122.7500 134.5000 137.5000 Du        
   7617 ****       122.7500 134.5000 137.7500 Du        
   7618 ****       122.7500 134.5000 138.0000 Du        
   7619 ****       122.7500 134.5000 138.2500 Du        
   7620 ****       122.7500 134.5000 138.5000 Du        
   7621 ****       122.7500 134.5000 138.7500 Du        
   7622 ****       122.7500 134.5000 139.0000 Du        
   7623 ****       122.7500 134.5000 139.2500 Du        
   7624 ****       122.7500 134.7500 137.2500 Du        
   7625 ****       122.7500 134.7500 137.5000 Du        
   7626 ****       122.7500 134.7500 137.7500 Du        
   7627 ****       122.7500 134.7500 138.0000 Du        
   7628 ****       122.7500 134.7500 138.2500 Du        
   7629 ****       122.7500 134.7500 138.5000 Du        
   7630 ****       122.7500 134.7500 138.7500 Du        
   7631 ****       122.7500 135.0000 137.2500 Du        
   7632 ****       122.7500 135.0000 137.5000 Du        
   7633 ****       122.7500 135.0000 137.7500 Du        
   7634 ****       122.7500 135.0000 138.0000 Du        
   7635 ****       122.7500 135.0000 138.2500 Du        
   7636 ****       122.7500 135.2500 137.7500 Du        
   7637 ****       122.7500 137.2500 154.2500 Du        
   7638 ****       122.7500 137.2500 154.5000 Du        
   7639 ****       122.7500 139.0000  94.2500 Du        
   7640 ****       122.7500 139.0000  94.5000 Du        
   7641 ****       122.7500 139.0000  94.7500 Du        
   7642 ****       122.7500 139.0000  95.0000 Du        
   7643 ****       122.7500 139.0000  95.2500 Du        
   7644 ****       122.7500 139.0000  95.5000 Du        
   7645 ****       122.7500 139.0000  95.7500 Du        
   7646 ****       122.7500 139.0000  96.0000 Du        
   7647 ****       122.7500 139.0000  96.2500 Du        
   7648 ****       122.7500 139.2500  94.5000 Du        
   7649 ****       122.7500 139.2500  94.7500 Du        
   7650 ****       122.7500 139.2500  95.0000 Du        
   7651 ****       122.7500 139.2500  95.2500 Du        
   7652 ****       122.7500 139.2500  95.5000 Du        
   7653 ****       122.7500 139.2500  95.7500 Du        
   7654 ****       122.7500 139.2500  96.0000 Du        
   7655 ****       122.7500 139.2500  96.2500 Du        
   7656 ****       122.7500 139.5000  94.7500 Du        
   7657 ****       122.7500 139.5000  95.0000 Du        
   7658 ****       122.7500 139.5000  95.2500 Du        
   7659 ****       122.7500 139.5000  95.5000 Du        
   7660 ****       122.7500 139.5000  95.7500 Du        
   7661 ****       122.7500 139.5000  96.0000 Du        
   7662 ****       122.7500 139.5000  96.2500 Du        
   7663 ****       122.7500 139.7500  95.0000 Du        
   7664 ****       122.7500 139.7500  95.2500 Du        
   7665 ****       122.7500 139.7500  95.5000 Du        
   7666 ****       122.7500 139.7500  95.7500 Du        
   7667 ****       122.7500 139.7500  96.0000 Du        
   7668 ****       122.7500 139.7500  96.2500 Du        
   7669 ****       122.7500 140.0000  95.5000 Du        
   7670 ****       122.7500 140.0000  95.7500 Du        
   7671 ****       122.7500 140.0000  96.0000 Du        
   7672 ****       122.7500 140.0000  96.2500 Du        
   7673 ****       122.7500 140.2500  95.7500 Du        
   7674 ****       122.7500 140.2500  96.0000 Du        
   7675 ****       122.7500 144.7500 118.7500 Du        
   7676 ****       122.7500 144.7500 119.0000 Du        
   7677 ****       122.7500 144.7500 119.2500 Du        
   7678 ****       122.7500 145.0000 118.7500 Du        
   7679 ****       122.7500 145.0000 119.0000 Du        
   7680 ****       122.7500 145.0000 119.2500 Du        
   7681 ****       122.7500 145.0000 129.2500 Du        
   7682 ****       122.7500 145.0000 129.5000 Du        
   7683 ****       122.7500 145.0000 129.7500 Du        
   7684 ****       122.7500 145.0000 130.0000 Du        
   7685 ****       122.7500 145.0000 130.2500 Du        
   7686 ****       122.7500 145.2500 118.7500 Du        
   7687 ****       122.7500 145.2500 119.0000 Du        
   7688 ****       122.7500 145.2500 128.7500 Du        
   7689 ****       122.7500 145.2500 129.0000 Du        
   7690 ****       122.7500 145.2500 129.2500 Du        
   7691 ****       122.7500 145.2500 129.5000 Du        
   7692 ****       122.7500 145.2500 129.7500 Du        
   7693 ****       122.7500 145.2500 130.0000 Du        
   7694 ****       122.7500 145.2500 130.2500 Du        
   7695 ****       122.7500 145.2500 130.5000 Du        
   7696 ****       122.7500 145.5000 130.5000 Du        
   7697 ****       122.7500 145.5000 130.7500 Du        
   7698 ****       122.7500 145.7500 130.7500 Du        
   7699 ****       122.7500 151.0000 151.5000 Du        
   7700 ****       122.7500 151.2500 151.5000 Du        
   7701 ****       122.7500 151.2500 151.7500 Du        
   7702 ****       122.7500 151.2500 152.0000 Du        
   7703 ****       122.7500 151.5000 151.5000 Du        
   7704 ****       122.7500 151.5000 151.7500 Du        
   7705 ****       122.7500 151.5000 152.0000 Du        
   7706 ****       122.7500 151.5000 152.2500 Du        
   7707 ****       122.7500 151.5000 152.5000 Du        
   7708 ****       122.7500 151.7500 151.2500 Du        
   7709 ****       122.7500 151.7500 151.5000 Du        
   7710 ****       122.7500 151.7500 151.7500 Du        
   7711 ****       122.7500 151.7500 152.0000 Du        
   7712 ****       122.7500 151.7500 152.2500 Du        
   7713 ****       122.7500 151.7500 152.5000 Du        
   7714 ****       122.7500 151.7500 152.7500 Du        
   7715 ****       122.7500 152.0000 151.2500 Du        
   7716 ****       122.7500 152.0000 151.5000 Du        
   7717 ****       122.7500 152.0000 151.7500 Du        
   7718 ****       122.7500 152.0000 152.0000 Du        
   7719 ****       122.7500 152.0000 152.2500 Du        
   7720 ****       122.7500 152.0000 152.5000 Du        
   7721 ****       122.7500 152.0000 152.7500 Du        
   7722 ****       122.7500 152.0000 153.0000 Du        
   7723 ****       122.7500 152.2500 151.5000 Du        
   7724 ****       122.7500 152.2500 151.7500 Du        
   7725 ****       122.7500 152.2500 152.0000 Du        
   7726 ****       122.7500 152.2500 152.2500 Du        
   7727 ****       122.7500 152.2500 152.5000 Du        
   7728 ****       122.7500 152.2500 152.7500 Du        
   7729 ****       122.7500 152.2500 153.0000 Du        
   7730 ****       122.7500 152.2500 153.2500 Du        
   7731 ****       122.7500 152.5000 151.5000 Du        
   7732 ****       122.7500 152.5000 151.7500 Du        
   7733 ****       122.7500 152.5000 152.0000 Du        
   7734 ****       122.7500 152.5000 152.2500 Du        
   7735 ****       122.7500 152.5000 152.5000 Du        
   7736 ****       122.7500 152.5000 152.7500 Du        
   7737 ****       122.7500 152.5000 153.0000 Du        
   7738 ****       122.7500 152.5000 153.2500 Du        
   7739 ****       122.7500 152.5000 153.5000 Du        
   7740 ****       122.7500 152.5000 157.2500 Du        
   7741 ****       122.7500 152.5000 157.5000 Du        
   7742 ****       122.7500 152.5000 157.7500 Du        
   7743 ****       122.7500 152.7500 152.0000 Du        
   7744 ****       122.7500 152.7500 152.2500 Du        
   7745 ****       122.7500 152.7500 152.5000 Du        
   7746 ****       122.7500 152.7500 152.7500 Du        
   7747 ****       122.7500 152.7500 153.0000 Du        
   7748 ****       122.7500 152.7500 153.2500 Du        
   7749 ****       122.7500 152.7500 153.5000 Du        
   7750 ****       122.7500 152.7500 153.7500 Du        
   7751 ****       122.7500 152.7500 156.5000 Du        
   7752 ****       122.7500 152.7500 156.7500 Du        
   7753 ****       122.7500 152.7500 157.0000 Du        
   7754 ****       122.7500 152.7500 157.2500 Du        
   7755 ****       122.7500 152.7500 157.5000 Du        
   7756 ****       122.7500 152.7500 157.7500 Du        
   7757 ****       122.7500 153.0000 155.7500 Du        
   7758 ****       122.7500 153.0000 156.0000 Du        
   7759 ****       122.7500 153.0000 156.2500 Du        
   7760 ****       122.7500 153.0000 156.5000 Du        
   7761 ****       122.7500 153.0000 156.7500 Du        
   7762 ****       122.7500 153.0000 157.0000 Du        
   7763 ****       122.7500 153.0000 157.2500 Du        
   7764 ****       122.7500 153.0000 157.5000 Du        
   7765 ****       122.7500 153.0000 157.7500 Du        
   7766 ****       122.7500 153.2500 155.5000 Du        
   7767 ****       122.7500 153.2500 155.7500 Du        
   7768 ****       122.7500 153.2500 156.0000 Du        
   7769 ****       122.7500 153.2500 156.2500 Du        
   7770 ****       122.7500 153.2500 156.5000 Du        
   7771 ****       122.7500 153.2500 156.7500 Du        
   7772 ****       122.7500 153.2500 157.0000 Du        
   7773 ****       122.7500 153.2500 157.2500 Du        
   7774 ****       122.7500 153.2500 157.5000 Du        
   7775 ****       122.7500 153.2500 157.7500 Du        
   7776 ****       122.7500 153.5000 156.0000 Du        
   7777 ****       122.7500 153.5000 156.2500 Du        
   7778 ****       122.7500 153.5000 156.5000 Du        
   7779 ****       122.7500 153.5000 156.7500 Du        
   7780 ****       122.7500 153.5000 157.0000 Du        
   7781 ****       122.7500 153.5000 157.2500 Du        
   7782 ****       122.7500 153.5000 157.5000 Du        
   7783 ****       122.7500 153.5000 157.7500 Du        
   7784 ****       122.7500 153.7500 156.5000 Du        
   7785 ****       122.7500 153.7500 156.7500 Du        
   7786 ****       122.7500 153.7500 157.0000 Du        
   7787 ****       122.7500 153.7500 157.2500 Du        
   7788 ****       122.7500 153.7500 157.5000 Du        
   7789 ****       122.7500 153.7500 157.7500 Du        
   7790 ****       122.7500 155.7500  97.7500 Du        
   7791 ****       122.7500 156.0000  97.7500 Du        
   7792 ****       122.7500 156.0000 106.2500 Du        
   7793 ****       122.7500 156.2500 106.2500 Du        
   7794 ****       122.7500 158.2500 150.5000 Du        
   7795 ****       122.7500 158.2500 150.7500 Du        
   7796 ****       122.7500 158.5000 150.5000 Du        
   7797 ****       122.7500 158.5000 150.7500 Du        
   7798 ****       122.7500 158.5000 151.0000 Du        
   7799 ****       122.7500 158.7500 150.5000 Du        
   7800 ****       122.7500 158.7500 150.7500 Du        
   7801 ****       122.7500 158.7500 151.0000 Du        
   7802 ****       122.7500 158.7500 151.2500 Du        
   7803 ****       122.7500 159.0000 150.5000 Du        
   7804 ****       122.7500 159.0000 150.7500 Du        
   7805 ****       122.7500 159.0000 151.0000 Du        
   7806 ****       122.7500 159.0000 151.2500 Du        
   7807 ****       122.7500 159.2500 150.7500 Du        
   7808 ****       122.7500 159.2500 151.0000 Du        
   7809 ****       122.7500 159.2500 151.2500 Du        
   7810 ****       122.7500 159.2500 151.5000 Du        
   7811 ****       122.7500 159.5000 151.0000 Du        
   7812 ****       122.7500 159.5000 151.2500 Du        
   7813 ****       122.7500 159.5000 151.5000 Du        
   7814 ****       122.7500 159.7500 151.5000 Du        
   7815 ****       122.7500 160.0000 151.5000 Du        
   7816 ****       122.7500 160.7500 156.5000 Du        
   7817 ****       122.7500 160.7500 156.7500 Du        
   7818 ****       122.7500 160.7500 157.0000 Du        
   7819 ****       122.7500 161.0000 156.2500 Du        
   7820 ****       122.7500 161.0000 156.5000 Du        
   7821 ****       122.7500 161.0000 156.7500 Du        
   7822 ****       122.7500 161.0000 157.0000 Du        
   7823 ****       122.7500 161.0000 157.2500 Du        
   7824 ****       122.7500 161.2500 156.0000 Du        
   7825 ****       122.7500 161.2500 156.2500 Du        
   7826 ****       122.7500 161.2500 156.5000 Du        
   7827 ****       122.7500 161.2500 156.7500 Du        
   7828 ****       122.7500 161.2500 157.0000 Du        
   7829 ****       122.7500 161.2500 157.2500 Du        
   7830 ****       122.7500 161.2500 157.5000 Du        
   7831 ****       122.7500 161.5000 156.0000 Du        
   7832 ****       122.7500 161.5000 156.2500 Du        
   7833 ****       122.7500 161.5000 156.5000 Du        
   7834 ****       122.7500 161.5000 156.7500 Du        
   7835 ****       122.7500 161.5000 157.0000 Du        
   7836 ****       122.7500 161.5000 157.2500 Du        
   7837 ****       122.7500 161.5000 157.5000 Du        
   7838 ****       122.7500 161.7500 156.0000 Du        
   7839 ****       122.7500 161.7500 156.2500 Du        
   7840 ****       122.7500 161.7500 156.5000 Du        
   7841 ****       122.7500 161.7500 156.7500 Du        
   7842 ****       122.7500 161.7500 157.0000 Du        
   7843 ****       122.7500 161.7500 157.2500 Du        
   7844 ****       122.7500 161.7500 157.5000 Du        
   7845 ****       122.7500 161.7500 157.7500 Du        
   7846 ****       122.7500 162.0000 156.2500 Du        
   7847 ****       122.7500 162.0000 156.5000 Du        
   7848 ****       122.7500 162.0000 156.7500 Du        
   7849 ****       122.7500 162.0000 157.0000 Du        
   7850 ****       122.7500 162.0000 157.2500 Du        
   7851 ****       122.7500 162.0000 157.5000 Du        
   7852 ****       122.7500 162.0000 157.7500 Du        
   7853 ****       122.7500 162.2500 156.5000 Du        
   7854 ****       122.7500 162.2500 156.7500 Du        
   7855 ****       122.7500 162.2500 157.0000 Du        
   7856 ****       122.7500 162.2500 157.2500 Du        
   7857 ****       122.7500 162.2500 157.5000 Du        
   7858 ****       122.7500 162.2500 157.7500 Du        
   7859 ****       122.7500 163.5000 167.0000 Du        
   7860 ****       122.7500 163.5000 167.2500 Du        
   7861 ****       122.7500 163.5000 167.5000 Du        
   7862 ****       122.7500 163.7500 167.0000 Du        
   7863 ****       122.7500 163.7500 167.2500 Du        
   7864 ****       122.7500 163.7500 167.5000 Du        
   7865 ****       122.7500 164.0000 167.0000 Du        
   7866 ****       122.7500 164.0000 167.2500 Du        
   7867 ****       122.7500 164.0000 167.5000 Du        
   7868 ****       123.0000 121.0000 135.2500 Du        
   7869 ****       123.0000 121.0000 135.5000 Du        
   7870 ****       123.0000 121.0000 135.7500 Du        
   7871 ****       123.0000 122.2500 121.5000 Du        
   7872 ****       123.0000 122.2500 121.7500 Du        
   7873 ****       123.0000 122.2500 122.0000 Du        
   7874 ****       123.0000 122.5000 121.0000 Du        
   7875 ****       123.0000 122.5000 121.2500 Du        
   7876 ****       123.0000 122.5000 121.5000 Du        
   7877 ****       123.0000 122.5000 121.7500 Du        
   7878 ****       123.0000 122.5000 122.0000 Du        
   7879 ****       123.0000 122.5000 122.2500 Du        
   7880 ****       123.0000 122.5000 122.5000 Du        
   7881 ****       123.0000 122.7500 120.7500 Du        
   7882 ****       123.0000 122.7500 121.0000 Du        
   7883 ****       123.0000 122.7500 121.2500 Du        
   7884 ****       123.0000 122.7500 121.5000 Du        
   7885 ****       123.0000 122.7500 121.7500 Du        
   7886 ****       123.0000 122.7500 122.0000 Du        
   7887 ****       123.0000 122.7500 122.2500 Du        
   7888 ****       123.0000 122.7500 122.5000 Du        
   7889 ****       123.0000 122.7500 122.7500 Du        
   7890 ****       123.0000 122.7500 123.0000 Du        
   7891 ****       123.0000 123.0000 118.0000 Du        
   7892 ****       123.0000 123.0000 118.2500 Du        
   7893 ****       123.0000 123.0000 118.7500 Du        
   7894 ****       123.0000 123.0000 119.0000 Du        
   7895 ****       123.0000 123.0000 119.2500 Du        
   7896 ****       123.0000 123.0000 119.5000 Du        
   7897 ****       123.0000 123.0000 119.7500 Du        
   7898 ****       123.0000 123.0000 120.0000 Du        
   7899 ****       123.0000 123.0000 120.2500 Du        
   7900 ****       123.0000 123.0000 120.5000 Du        
   7901 ****       123.0000 123.0000 120.7500 Du        
   7902 ****       123.0000 123.0000 121.0000 Du        
   7903 ****       123.0000 123.0000 121.2500 Du        
   7904 ****       123.0000 123.0000 121.5000 Du        
   7905 ****       123.0000 123.0000 121.7500 Du        
   7906 ****       123.0000 123.0000 122.0000 Du        
   7907 ****       123.0000 123.0000 122.2500 Du        
   7908 ****       123.0000 123.0000 122.5000 Du        
   7909 ****       123.0000 123.0000 122.7500 Du        
   7910 ****       123.0000 123.0000 123.0000 Du        
   7911 ****       123.0000 123.2500 118.0000 Du        
   7912 ****       123.0000 123.2500 118.2500 Du        
   7913 ****       123.0000 123.2500 118.5000 Du        
   7914 ****       123.0000 123.2500 118.7500 Du        
   7915 ****       123.0000 123.2500 119.0000 Du        
   7916 ****       123.0000 123.2500 119.2500 Du        
   7917 ****       123.0000 123.2500 119.5000 Du        
   7918 ****       123.0000 123.2500 119.7500 Du        
   7919 ****       123.0000 123.2500 120.0000 Du        
   7920 ****       123.0000 123.2500 120.2500 Du        
   7921 ****       123.0000 123.2500 120.5000 Du        
   7922 ****       123.0000 123.2500 120.7500 Du        
   7923 ****       123.0000 123.2500 121.0000 Du        
   7924 ****       123.0000 123.2500 121.2500 Du        
   7925 ****       123.0000 123.2500 121.5000 Du        
   7926 ****       123.0000 123.2500 121.7500 Du        
   7927 ****       123.0000 123.2500 122.0000 Du        
   7928 ****       123.0000 123.2500 122.2500 Du        
   7929 ****       123.0000 123.5000 118.2500 Du        
   7930 ****       123.0000 123.5000 118.5000 Du        
   7931 ****       123.0000 123.5000 118.7500 Du        
   7932 ****       123.0000 123.5000 119.0000 Du        
   7933 ****       123.0000 123.5000 119.2500 Du        
   7934 ****       123.0000 123.5000 119.5000 Du        
   7935 ****       123.0000 123.5000 119.7500 Du        
   7936 ****       123.0000 123.5000 120.0000 Du        
   7937 ****       123.0000 123.5000 120.2500 Du        
   7938 ****       123.0000 123.5000 120.5000 Du        
   7939 ****       123.0000 123.5000 120.7500 Du        
   7940 ****       123.0000 123.5000 121.0000 Du        
   7941 ****       123.0000 123.5000 121.2500 Du        
   7942 ****       123.0000 123.5000 121.5000 Du        
   7943 ****       123.0000 123.5000 121.7500 Du        
   7944 ****       123.0000 123.7500 118.5000 Du        
   7945 ****       123.0000 123.7500 118.7500 Du        
   7946 ****       123.0000 123.7500 119.0000 Du        
   7947 ****       123.0000 123.7500 119.2500 Du        
   7948 ****       123.0000 123.7500 119.5000 Du        
   7949 ****       123.0000 123.7500 119.7500 Du        
   7950 ****       123.0000 123.7500 120.0000 Du        
   7951 ****       123.0000 123.7500 120.2500 Du        
   7952 ****       123.0000 123.7500 120.5000 Du        
   7953 ****       123.0000 123.7500 120.7500 Du        
   7954 ****       123.0000 123.7500 121.0000 Du        
   7955 ****       123.0000 123.7500 121.2500 Du        
   7956 ****       123.0000 123.7500 121.5000 Du        
   7957 ****       123.0000 124.0000 111.0000 Du        
   7958 ****       123.0000 124.0000 111.2500 Du        
   7959 ****       123.0000 124.0000 119.0000 Du        
   7960 ****       123.0000 124.0000 119.2500 Du        
   7961 ****       123.0000 124.0000 119.5000 Du        
   7962 ****       123.0000 124.0000 119.7500 Du        
   7963 ****       123.0000 124.0000 120.0000 Du        
   7964 ****       123.0000 124.0000 120.2500 Du        
   7965 ****       123.0000 124.0000 120.5000 Du        
   7966 ****       123.0000 124.0000 120.7500 Du        
   7967 ****       123.0000 124.0000 121.0000 Du        
   7968 ****       123.0000 124.0000 121.2500 Du        
   7969 ****       123.0000 124.2500 111.0000 Du        
   7970 ****       123.0000 124.2500 111.2500 Du        
   7971 ****       123.0000 124.2500 119.2500 Du        
   7972 ****       123.0000 124.2500 119.5000 Du        
   7973 ****       123.0000 124.2500 119.7500 Du        
   7974 ****       123.0000 124.2500 120.0000 Du        
   7975 ****       123.0000 124.2500 120.2500 Du        
   7976 ****       123.0000 124.2500 120.5000 Du        
   7977 ****       123.0000 124.2500 120.7500 Du        
   7978 ****       123.0000 124.2500 121.0000 Du        
   7979 ****       123.0000 124.5000 111.0000 Du        
   7980 ****       123.0000 124.5000 111.2500 Du        
   7981 ****       123.0000 124.5000 111.5000 Du        
   7982 ****       123.0000 124.5000 119.7500 Du        
   7983 ****       123.0000 124.5000 120.0000 Du        
   7984 ****       123.0000 124.5000 120.2500 Du        
   7985 ****       123.0000 124.5000 120.5000 Du        
   7986 ****       123.0000 124.5000 120.7500 Du        
   7987 ****       123.0000 124.5000 121.0000 Du        
   7988 ****       123.0000 124.7500 111.2500 Du        
   7989 ****       123.0000 124.7500 120.0000 Du        
   7990 ****       123.0000 124.7500 120.2500 Du        
   7991 ****       123.0000 124.7500 120.5000 Du        
   7992 ****       123.0000 124.7500 120.7500 Du        
   7993 ****       123.0000 125.0000 120.5000 Du        
   7994 ****       123.0000 131.0000 162.0000 Du        
   7995 ****       123.0000 131.0000 162.2500 Du        
   7996 ****       123.0000 131.0000 162.5000 Du        
   7997 ****       123.0000 131.2500 162.0000 Du        
   7998 ****       123.0000 131.2500 162.2500 Du        
   7999 ****       123.0000 131.2500 162.5000 Du        
   8000 ****       123.0000 131.2500 162.7500 Du        
   8001 ****       123.0000 131.5000 162.0000 Du        
   8002 ****       123.0000 131.5000 162.2500 Du        
   8003 ****       123.0000 131.5000 162.5000 Du        
   8004 ****       123.0000 131.5000 162.7500 Du        
   8005 ****       123.0000 131.5000 163.0000 Du        
   8006 ****       123.0000 131.7500 161.7500 Du        
   8007 ****       123.0000 131.7500 162.0000 Du        
   8008 ****       123.0000 131.7500 162.2500 Du        
   8009 ****       123.0000 131.7500 162.5000 Du        
   8010 ****       123.0000 131.7500 162.7500 Du        
   8011 ****       123.0000 131.7500 163.0000 Du        
   8012 ****       123.0000 131.7500 163.2500 Du        
   8013 ****       123.0000 132.0000 161.7500 Du        
   8014 ****       123.0000 132.0000 162.0000 Du        
   8015 ****       123.0000 132.0000 162.2500 Du        
   8016 ****       123.0000 132.0000 162.5000 Du        
   8017 ****       123.0000 132.0000 162.7500 Du        
   8018 ****       123.0000 132.0000 163.0000 Du        
   8019 ****       123.0000 132.2500 162.0000 Du        
   8020 ****       123.0000 134.0000 136.7500 Du        
   8021 ****       123.0000 134.0000 137.0000 Du        
   8022 ****       123.0000 134.0000 137.2500 Du        
   8023 ****       123.0000 134.0000 140.0000 Du        
   8024 ****       123.0000 134.0000 140.2500 Du        
   8025 ****       123.0000 134.2500 136.7500 Du        
   8026 ****       123.0000 134.2500 137.0000 Du        
   8027 ****       123.0000 134.2500 137.2500 Du        
   8028 ****       123.0000 134.2500 137.5000 Du        
   8029 ****       123.0000 134.2500 137.7500 Du        
   8030 ****       123.0000 134.2500 138.0000 Du        
   8031 ****       123.0000 134.2500 138.2500 Du        
   8032 ****       123.0000 134.2500 138.7500 Du        
   8033 ****       123.0000 134.2500 139.0000 Du        
   8034 ****       123.0000 134.2500 139.2500 Du        
   8035 ****       123.0000 134.2500 139.5000 Du        
   8036 ****       123.0000 134.2500 139.7500 Du        
   8037 ****       123.0000 134.2500 140.0000 Du        
   8038 ****       123.0000 134.2500 140.2500 Du        
   8039 ****       123.0000 134.2500 140.5000 Du        
   8040 ****       123.0000 134.5000 137.0000 Du        
   8041 ****       123.0000 134.5000 137.2500 Du        
   8042 ****       123.0000 134.5000 137.5000 Du        
   8043 ****       123.0000 134.5000 137.7500 Du        
   8044 ****       123.0000 134.5000 138.0000 Du        
   8045 ****       123.0000 134.5000 138.2500 Du        
   8046 ****       123.0000 134.5000 138.5000 Du        
   8047 ****       123.0000 134.5000 138.7500 Du        
   8048 ****       123.0000 134.5000 139.0000 Du        
   8049 ****       123.0000 134.5000 139.2500 Du        
   8050 ****       123.0000 134.5000 139.5000 Du        
   8051 ****       123.0000 134.5000 139.7500 Du        
   8052 ****       123.0000 134.5000 140.0000 Du        
   8053 ****       123.0000 134.5000 140.2500 Du        
   8054 ****       123.0000 134.7500 137.2500 Du        
   8055 ****       123.0000 134.7500 137.5000 Du        
   8056 ****       123.0000 134.7500 137.7500 Du        
   8057 ****       123.0000 134.7500 138.0000 Du        
   8058 ****       123.0000 134.7500 138.2500 Du        
   8059 ****       123.0000 134.7500 138.5000 Du        
   8060 ****       123.0000 134.7500 138.7500 Du        
   8061 ****       123.0000 134.7500 139.0000 Du        
   8062 ****       123.0000 134.7500 139.2500 Du        
   8063 ****       123.0000 134.7500 139.5000 Du        
   8064 ****       123.0000 134.7500 139.7500 Du        
   8065 ****       123.0000 134.7500 140.0000 Du        
   8066 ****       123.0000 134.7500 140.2500 Du        
   8067 ****       123.0000 135.0000 137.2500 Du        
   8068 ****       123.0000 135.0000 137.5000 Du        
   8069 ****       123.0000 135.0000 137.7500 Du        
   8070 ****       123.0000 135.0000 138.0000 Du        
   8071 ****       123.0000 135.0000 138.2500 Du        
   8072 ****       123.0000 135.0000 138.5000 Du        
   8073 ****       123.0000 135.0000 138.7500 Du        
   8074 ****       123.0000 135.2500 137.5000 Du        
   8075 ****       123.0000 135.2500 137.7500 Du        
   8076 ****       123.0000 135.2500 138.0000 Du        
   8077 ****       123.0000 135.2500 138.2500 Du        
   8078 ****       123.0000 136.5000 154.5000 Du        
   8079 ****       123.0000 136.5000 154.7500 Du        
   8080 ****       123.0000 136.7500 154.2500 Du        
   8081 ****       123.0000 136.7500 154.5000 Du        
   8082 ****       123.0000 136.7500 154.7500 Du        
   8083 ****       123.0000 137.0000 154.2500 Du        
   8084 ****       123.0000 137.0000 154.5000 Du        
   8085 ****       123.0000 137.0000 154.7500 Du        
   8086 ****       123.0000 137.2500 154.2500 Du        
   8087 ****       123.0000 137.2500 154.5000 Du        
   8088 ****       123.0000 138.5000  96.0000 Du        
   8089 ****       123.0000 138.5000  96.2500 Du        
   8090 ****       123.0000 138.5000  96.5000 Du        
   8091 ****       123.0000 138.7500  94.0000 Du        
   8092 ****       123.0000 138.7500  94.2500 Du        
   8093 ****       123.0000 138.7500  94.5000 Du        
   8094 ****       123.0000 138.7500  94.7500 Du        
   8095 ****       123.0000 138.7500  95.0000 Du        
   8096 ****       123.0000 138.7500  95.2500 Du        
   8097 ****       123.0000 138.7500  95.5000 Du        
   8098 ****       123.0000 138.7500  95.7500 Du        
   8099 ****       123.0000 138.7500  96.0000 Du        
   8100 ****       123.0000 138.7500  96.2500 Du        
   8101 ****       123.0000 138.7500  96.5000 Du        
   8102 ****       123.0000 139.0000  94.0000 Du        
   8103 ****       123.0000 139.0000  94.2500 Du        
   8104 ****       123.0000 139.0000  94.5000 Du        
   8105 ****       123.0000 139.0000  94.7500 Du        
   8106 ****       123.0000 139.0000  95.0000 Du        
   8107 ****       123.0000 139.0000  95.2500 Du        
   8108 ****       123.0000 139.0000  95.5000 Du        
   8109 ****       123.0000 139.0000  95.7500 Du        
   8110 ****       123.0000 139.0000  96.0000 Du        
   8111 ****       123.0000 139.0000  96.2500 Du        
   8112 ****       123.0000 139.0000  96.5000 Du        
   8113 ****       123.0000 139.2500  94.5000 Du        
   8114 ****       123.0000 139.2500  94.7500 Du        
   8115 ****       123.0000 139.2500  95.0000 Du        
   8116 ****       123.0000 139.2500  95.2500 Du        
   8117 ****       123.0000 139.2500  95.5000 Du        
   8118 ****       123.0000 139.2500  95.7500 Du        
   8119 ****       123.0000 139.2500  96.0000 Du        
   8120 ****       123.0000 139.2500  96.2500 Du        
   8121 ****       123.0000 139.2500  96.5000 Du        
   8122 ****       123.0000 139.5000  95.0000 Du        
   8123 ****       123.0000 139.5000  95.2500 Du        
   8124 ****       123.0000 139.5000  95.5000 Du        
   8125 ****       123.0000 139.5000  95.7500 Du        
   8126 ****       123.0000 139.5000  96.0000 Du        
   8127 ****       123.0000 139.5000  96.2500 Du        
   8128 ****       123.0000 139.5000  96.5000 Du        
   8129 ****       123.0000 139.7500  95.2500 Du        
   8130 ****       123.0000 139.7500  95.5000 Du        
   8131 ****       123.0000 139.7500  95.7500 Du        
   8132 ****       123.0000 139.7500  96.0000 Du        
   8133 ****       123.0000 139.7500  96.2500 Du        
   8134 ****       123.0000 139.7500  96.5000 Du        
   8135 ****       123.0000 140.0000  95.5000 Du        
   8136 ****       123.0000 140.0000  95.7500 Du        
   8137 ****       123.0000 140.0000  96.0000 Du        
   8138 ****       123.0000 140.0000  96.2500 Du        
   8139 ****       123.0000 140.0000  96.5000 Du        
   8140 ****       123.0000 140.2500  95.7500 Du        
   8141 ****       123.0000 140.2500  96.0000 Du        
   8142 ****       123.0000 140.2500  96.2500 Du        
   8143 ****       123.0000 144.7500 118.7500 Du        
   8144 ****       123.0000 144.7500 119.0000 Du        
   8145 ****       123.0000 144.7500 119.2500 Du        
   8146 ****       123.0000 145.0000 118.5000 Du        
   8147 ****       123.0000 145.0000 118.7500 Du        
   8148 ****       123.0000 145.0000 119.0000 Du        
   8149 ****       123.0000 145.0000 119.2500 Du        
   8150 ****       123.0000 145.0000 129.5000 Du        
   8151 ****       123.0000 145.0000 129.7500 Du        
   8152 ****       123.0000 145.0000 130.0000 Du        
   8153 ****       123.0000 145.0000 130.2500 Du        
   8154 ****       123.0000 145.0000 130.5000 Du        
   8155 ****       123.0000 145.2500 118.5000 Du        
   8156 ****       123.0000 145.2500 118.7500 Du        
   8157 ****       123.0000 145.2500 119.0000 Du        
   8158 ****       123.0000 145.2500 119.2500 Du        
   8159 ****       123.0000 145.2500 129.2500 Du        
   8160 ****       123.0000 145.2500 129.5000 Du        
   8161 ****       123.0000 145.2500 129.7500 Du        
   8162 ****       123.0000 145.2500 130.0000 Du        
   8163 ****       123.0000 145.2500 130.2500 Du        
   8164 ****       123.0000 145.2500 130.5000 Du        
   8165 ****       123.0000 145.2500 130.7500 Du        
   8166 ****       123.0000 145.2500 131.0000 Du        
   8167 ****       123.0000 145.5000 118.7500 Du        
   8168 ****       123.0000 145.5000 119.0000 Du        
   8169 ****       123.0000 145.5000 129.7500 Du        
   8170 ****       123.0000 145.5000 130.0000 Du        
   8171 ****       123.0000 145.5000 130.2500 Du        
   8172 ****       123.0000 145.5000 130.5000 Du        
   8173 ****       123.0000 145.5000 130.7500 Du        
   8174 ****       123.0000 145.5000 131.0000 Du        
   8175 ****       123.0000 145.5000 131.2500 Du        
   8176 ****       123.0000 145.7500 118.2500 Du        
   8177 ****       123.0000 145.7500 118.7500 Du        
   8178 ****       123.0000 145.7500 130.5000 Du        
   8179 ****       123.0000 145.7500 130.7500 Du        
   8180 ****       123.0000 145.7500 131.0000 Du        
   8181 ****       123.0000 145.7500 131.2500 Du        
   8182 ****       123.0000 145.7500 131.5000 Du        
   8183 ****       123.0000 145.7500 131.7500 Du        
   8184 ****       123.0000 146.0000 118.2500 Du        
   8185 ****       123.0000 146.0000 130.7500 Du        
   8186 ****       123.0000 146.0000 131.0000 Du        
   8187 ****       123.0000 146.0000 131.2500 Du        
   8188 ****       123.0000 146.0000 131.5000 Du        
   8189 ****       123.0000 146.0000 131.7500 Du        
   8190 ****       123.0000 146.0000 132.0000 Du        
   8191 ****       123.0000 146.2500 117.7500 Du        
   8192 ****       123.0000 146.2500 118.0000 Du        
   8193 ****       123.0000 146.2500 118.2500 Du        
   8194 ****       123.0000 151.0000 151.0000 Du        
   8195 ****       123.0000 151.0000 151.2500 Du        
   8196 ****       123.0000 151.0000 151.5000 Du        
   8197 ****       123.0000 151.2500 151.0000 Du        
   8198 ****       123.0000 151.2500 151.2500 Du        
   8199 ****       123.0000 151.2500 151.5000 Du        
   8200 ****       123.0000 151.2500 151.7500 Du        
   8201 ****       123.0000 151.2500 152.0000 Du        
   8202 ****       123.0000 151.5000 151.5000 Du        
   8203 ****       123.0000 151.5000 151.7500 Du        
   8204 ****       123.0000 151.5000 152.0000 Du        
   8205 ****       123.0000 151.5000 152.2500 Du        
   8206 ****       123.0000 151.7500 151.2500 Du        
   8207 ****       123.0000 151.7500 151.5000 Du        
   8208 ****       123.0000 151.7500 151.7500 Du        
   8209 ****       123.0000 151.7500 152.0000 Du        
   8210 ****       123.0000 151.7500 152.2500 Du        
   8211 ****       123.0000 151.7500 152.5000 Du        
   8212 ****       123.0000 151.7500 152.7500 Du        
   8213 ****       123.0000 152.0000 151.5000 Du        
   8214 ****       123.0000 152.0000 151.7500 Du        
   8215 ****       123.0000 152.0000 152.0000 Du        
   8216 ****       123.0000 152.0000 152.2500 Du        
   8217 ****       123.0000 152.0000 152.5000 Du        
   8218 ****       123.0000 152.0000 152.7500 Du        
   8219 ****       123.0000 152.0000 153.0000 Du        
   8220 ****       123.0000 152.2500 151.5000 Du        
   8221 ****       123.0000 152.2500 151.7500 Du        
   8222 ****       123.0000 152.2500 152.0000 Du        
   8223 ****       123.0000 152.2500 152.2500 Du        
   8224 ****       123.0000 152.2500 152.5000 Du        
   8225 ****       123.0000 152.2500 152.7500 Du        
   8226 ****       123.0000 152.2500 153.0000 Du        
   8227 ****       123.0000 152.2500 153.2500 Du        
   8228 ****       123.0000 152.5000 152.0000 Du        
   8229 ****       123.0000 152.5000 152.2500 Du        
   8230 ****       123.0000 152.5000 152.5000 Du        
   8231 ****       123.0000 152.5000 152.7500 Du        
   8232 ****       123.0000 152.5000 153.0000 Du        
   8233 ****       123.0000 152.5000 153.2500 Du        
   8234 ****       123.0000 152.5000 153.5000 Du        
   8235 ****       123.0000 152.5000 157.5000 Du        
   8236 ****       123.0000 152.5000 157.7500 Du        
   8237 ****       123.0000 152.7500 152.5000 Du        
   8238 ****       123.0000 152.7500 152.7500 Du        
   8239 ****       123.0000 152.7500 153.0000 Du        
   8240 ****       123.0000 152.7500 153.2500 Du        
   8241 ****       123.0000 152.7500 153.5000 Du        
   8242 ****       123.0000 152.7500 153.7500 Du        
   8243 ****       123.0000 152.7500 156.2500 Du        
   8244 ****       123.0000 152.7500 156.5000 Du        
   8245 ****       123.0000 152.7500 156.7500 Du        
   8246 ****       123.0000 152.7500 157.0000 Du        
   8247 ****       123.0000 152.7500 157.2500 Du        
   8248 ****       123.0000 152.7500 157.5000 Du        
   8249 ****       123.0000 152.7500 157.7500 Du        
   8250 ****       123.0000 153.0000 155.5000 Du        
   8251 ****       123.0000 153.0000 155.7500 Du        
   8252 ****       123.0000 153.0000 156.0000 Du        
   8253 ****       123.0000 153.0000 156.2500 Du        
   8254 ****       123.0000 153.0000 156.5000 Du        
   8255 ****       123.0000 153.0000 156.7500 Du        
   8256 ****       123.0000 153.0000 157.0000 Du        
   8257 ****       123.0000 153.0000 157.2500 Du        
   8258 ****       123.0000 153.0000 157.5000 Du        
   8259 ****       123.0000 153.0000 157.7500 Du        
   8260 ****       123.0000 153.0000 158.0000 Du        
   8261 ****       123.0000 153.2500 155.5000 Du        
   8262 ****       123.0000 153.2500 155.7500 Du        
   8263 ****       123.0000 153.2500 156.0000 Du        
   8264 ****       123.0000 153.2500 156.2500 Du        
   8265 ****       123.0000 153.2500 156.5000 Du        
   8266 ****       123.0000 153.2500 156.7500 Du        
   8267 ****       123.0000 153.2500 157.0000 Du        
   8268 ****       123.0000 153.2500 157.2500 Du        
   8269 ****       123.0000 153.2500 157.5000 Du        
   8270 ****       123.0000 153.2500 157.7500 Du        
   8271 ****       123.0000 153.2500 158.0000 Du        
   8272 ****       123.0000 153.5000 155.7500 Du        
   8273 ****       123.0000 153.5000 156.0000 Du        
   8274 ****       123.0000 153.5000 156.2500 Du        
   8275 ****       123.0000 153.5000 156.5000 Du        
   8276 ****       123.0000 153.5000 156.7500 Du        
   8277 ****       123.0000 153.5000 157.0000 Du        
   8278 ****       123.0000 153.5000 157.2500 Du        
   8279 ****       123.0000 153.5000 157.5000 Du        
   8280 ****       123.0000 153.5000 157.7500 Du        
   8281 ****       123.0000 153.5000 158.0000 Du        
   8282 ****       123.0000 153.7500 156.2500 Du        
   8283 ****       123.0000 153.7500 156.5000 Du        
   8284 ****       123.0000 153.7500 156.7500 Du        
   8285 ****       123.0000 153.7500 157.0000 Du        
   8286 ****       123.0000 153.7500 157.2500 Du        
   8287 ****       123.0000 153.7500 157.5000 Du        
   8288 ****       123.0000 153.7500 157.7500 Du        
   8289 ****       123.0000 153.7500 158.0000 Du        
   8290 ****       123.0000 154.0000 156.7500 Du        
   8291 ****       123.0000 154.0000 157.0000 Du        
   8292 ****       123.0000 154.0000 157.2500 Du        
   8293 ****       123.0000 154.0000 157.5000 Du        
   8294 ****       123.0000 154.0000 157.7500 Du        
   8295 ****       123.0000 154.2500 157.2500 Du        
   8296 ****       123.0000 158.5000 150.7500 Du        
   8297 ****       123.0000 158.5000 151.0000 Du        
   8298 ****       123.0000 158.7500 150.5000 Du        
   8299 ****       123.0000 158.7500 150.7500 Du        
   8300 ****       123.0000 158.7500 151.0000 Du        
   8301 ****       123.0000 158.7500 151.2500 Du        
   8302 ****       123.0000 159.0000 150.5000 Du        
   8303 ****       123.0000 159.0000 150.7500 Du        
   8304 ****       123.0000 159.0000 151.0000 Du        
   8305 ****       123.0000 159.0000 151.2500 Du        
   8306 ****       123.0000 159.2500 150.5000 Du        
   8307 ****       123.0000 159.2500 150.7500 Du        
   8308 ****       123.0000 159.2500 151.0000 Du        
   8309 ****       123.0000 159.2500 151.2500 Du        
   8310 ****       123.0000 159.2500 151.5000 Du        
   8311 ****       123.0000 159.5000 150.7500 Du        
   8312 ****       123.0000 159.5000 151.0000 Du        
   8313 ****       123.0000 159.5000 151.2500 Du        
   8314 ****       123.0000 159.5000 151.5000 Du        
   8315 ****       123.0000 159.7500 150.7500 Du        
   8316 ****       123.0000 159.7500 151.0000 Du        
   8317 ****       123.0000 159.7500 151.2500 Du        
   8318 ****       123.0000 159.7500 151.5000 Du        
   8319 ****       123.0000 159.7500 151.7500 Du        
   8320 ****       123.0000 160.0000 151.2500 Du        
   8321 ****       123.0000 160.0000 151.5000 Du        
   8322 ****       123.0000 160.0000 151.7500 Du        
   8323 ****       123.0000 160.2500 151.7500 Du        
   8324 ****       123.0000 160.7500 156.7500 Du        
   8325 ****       123.0000 160.7500 157.0000 Du        
   8326 ****       123.0000 161.0000 156.2500 Du        
   8327 ****       123.0000 161.0000 156.5000 Du        
   8328 ****       123.0000 161.0000 156.7500 Du        
   8329 ****       123.0000 161.0000 157.0000 Du        
   8330 ****       123.0000 161.0000 157.2500 Du        
   8331 ****       123.0000 161.2500 156.0000 Du        
   8332 ****       123.0000 161.2500 156.2500 Du        
   8333 ****       123.0000 161.2500 156.5000 Du        
   8334 ****       123.0000 161.2500 156.7500 Du        
   8335 ****       123.0000 161.2500 157.0000 Du        
   8336 ****       123.0000 161.2500 157.2500 Du        
   8337 ****       123.0000 161.5000 156.0000 Du        
   8338 ****       123.0000 161.5000 156.2500 Du        
   8339 ****       123.0000 161.5000 156.5000 Du        
   8340 ****       123.0000 161.5000 156.7500 Du        
   8341 ****       123.0000 161.5000 157.0000 Du        
   8342 ****       123.0000 161.5000 157.2500 Du        
   8343 ****       123.0000 161.7500 156.0000 Du        
   8344 ****       123.0000 161.7500 156.2500 Du        
   8345 ****       123.0000 161.7500 156.5000 Du        
   8346 ****       123.0000 161.7500 156.7500 Du        
   8347 ****       123.0000 161.7500 157.0000 Du        
   8348 ****       123.0000 161.7500 157.2500 Du        
   8349 ****       123.0000 162.0000 156.2500 Du        
   8350 ****       123.0000 162.0000 156.5000 Du        
   8351 ****       123.0000 162.0000 156.7500 Du        
   8352 ****       123.0000 162.0000 157.0000 Du        
   8353 ****       123.0000 162.0000 157.2500 Du        
   8354 ****       123.0000 162.0000 157.5000 Du        
   8355 ****       123.0000 162.2500 156.5000 Du        
   8356 ****       123.0000 162.2500 156.7500 Du        
   8357 ****       123.0000 162.2500 157.0000 Du        
   8358 ****       123.0000 162.2500 157.2500 Du        
   8359 ****       123.0000 162.2500 157.5000 Du        
   8360 ****       123.0000 163.5000 167.5000 Du        
   8361 ****       123.0000 163.7500 167.5000 Du        
   8362 ****       123.0000 164.0000 167.5000 Du        
   8363 ****       123.2500 121.0000 135.0000 Du        
   8364 ****       123.2500 121.0000 135.2500 Du        
   8365 ****       123.2500 122.2500 121.7500 Du        
   8366 ****       123.2500 122.5000 121.5000 Du        
   8367 ****       123.2500 122.5000 121.7500 Du        
   8368 ****       123.2500 122.5000 122.0000 Du        
   8369 ****       123.2500 122.5000 122.2500 Du        
   8370 ****       123.2500 122.7500 121.0000 Du        
   8371 ****       123.2500 122.7500 121.2500 Du        
   8372 ****       123.2500 122.7500 121.5000 Du        
   8373 ****       123.2500 122.7500 121.7500 Du        
   8374 ****       123.2500 122.7500 122.0000 Du        
   8375 ****       123.2500 122.7500 122.2500 Du        
   8376 ****       123.2500 122.7500 122.5000 Du        
   8377 ****       123.2500 123.0000 117.5000 Du        
   8378 ****       123.2500 123.0000 117.7500 Du        
   8379 ****       123.2500 123.0000 118.0000 Du        
   8380 ****       123.2500 123.0000 118.2500 Du        
   8381 ****       123.2500 123.0000 118.5000 Du        
   8382 ****       123.2500 123.0000 118.7500 Du        
   8383 ****       123.2500 123.0000 119.0000 Du        
   8384 ****       123.2500 123.0000 120.2500 Du        
   8385 ****       123.2500 123.0000 120.5000 Du        
   8386 ****       123.2500 123.0000 120.7500 Du        
   8387 ****       123.2500 123.0000 121.0000 Du        
   8388 ****       123.2500 123.0000 121.2500 Du        
   8389 ****       123.2500 123.0000 121.5000 Du        
   8390 ****       123.2500 123.0000 121.7500 Du        
   8391 ****       123.2500 123.0000 122.0000 Du        
   8392 ****       123.2500 123.0000 122.2500 Du        
   8393 ****       123.2500 123.0000 122.5000 Du        
   8394 ****       123.2500 123.0000 122.7500 Du        
   8395 ****       123.2500 123.2500 117.5000 Du        
   8396 ****       123.2500 123.2500 117.7500 Du        
   8397 ****       123.2500 123.2500 118.0000 Du        
   8398 ****       123.2500 123.2500 118.2500 Du        
   8399 ****       123.2500 123.2500 118.5000 Du        
   8400 ****       123.2500 123.2500 118.7500 Du        
   8401 ****       123.2500 123.2500 119.0000 Du        
   8402 ****       123.2500 123.2500 119.2500 Du        
   8403 ****       123.2500 123.2500 119.5000 Du        
   8404 ****       123.2500 123.2500 119.7500 Du        
   8405 ****       123.2500 123.2500 120.0000 Du        
   8406 ****       123.2500 123.2500 120.2500 Du        
   8407 ****       123.2500 123.2500 120.5000 Du        
   8408 ****       123.2500 123.2500 120.7500 Du        
   8409 ****       123.2500 123.2500 121.0000 Du        
   8410 ****       123.2500 123.2500 121.2500 Du        
   8411 ****       123.2500 123.2500 121.5000 Du        
   8412 ****       123.2500 123.2500 121.7500 Du        
   8413 ****       123.2500 123.2500 122.0000 Du        
   8414 ****       123.2500 123.2500 122.2500 Du        
   8415 ****       123.2500 123.2500 122.5000 Du        
   8416 ****       123.2500 123.5000 111.2500 Du        
   8417 ****       123.2500 123.5000 118.2500 Du        
   8418 ****       123.2500 123.5000 118.5000 Du        
   8419 ****       123.2500 123.5000 118.7500 Du        
   8420 ****       123.2500 123.5000 119.0000 Du        
   8421 ****       123.2500 123.5000 119.2500 Du        
   8422 ****       123.2500 123.5000 119.5000 Du        
   8423 ****       123.2500 123.5000 119.7500 Du        
   8424 ****       123.2500 123.5000 120.0000 Du        
   8425 ****       123.2500 123.5000 120.2500 Du        
   8426 ****       123.2500 123.5000 120.5000 Du        
   8427 ****       123.2500 123.5000 120.7500 Du        
   8428 ****       123.2500 123.5000 121.0000 Du        
   8429 ****       123.2500 123.5000 121.2500 Du        
   8430 ****       123.2500 123.5000 121.5000 Du        
   8431 ****       123.2500 123.5000 121.7500 Du        
   8432 ****       123.2500 123.5000 122.0000 Du        
   8433 ****       123.2500 123.7500 111.0000 Du        
   8434 ****       123.2500 123.7500 111.2500 Du        
   8435 ****       123.2500 123.7500 118.5000 Du        
   8436 ****       123.2500 123.7500 118.7500 Du        
   8437 ****       123.2500 123.7500 119.0000 Du        
   8438 ****       123.2500 123.7500 119.2500 Du        
   8439 ****       123.2500 123.7500 119.5000 Du        
   8440 ****       123.2500 123.7500 119.7500 Du        
   8441 ****       123.2500 123.7500 120.0000 Du        
   8442 ****       123.2500 123.7500 120.2500 Du        
   8443 ****       123.2500 123.7500 120.5000 Du        
   8444 ****       123.2500 123.7500 120.7500 Du        
   8445 ****       123.2500 123.7500 121.0000 Du        
   8446 ****       123.2500 123.7500 121.2500 Du        
   8447 ****       123.2500 123.7500 121.5000 Du        
   8448 ****       123.2500 123.7500 121.7500 Du        
   8449 ****       123.2500 124.0000 111.0000 Du        
   8450 ****       123.2500 124.0000 111.2500 Du        
   8451 ****       123.2500 124.0000 118.7500 Du        
   8452 ****       123.2500 124.0000 119.0000 Du        
   8453 ****       123.2500 124.0000 119.2500 Du        
   8454 ****       123.2500 124.0000 119.5000 Du        
   8455 ****       123.2500 124.0000 119.7500 Du        
   8456 ****       123.2500 124.0000 120.0000 Du        
   8457 ****       123.2500 124.0000 120.2500 Du        
   8458 ****       123.2500 124.0000 120.5000 Du        
   8459 ****       123.2500 124.0000 120.7500 Du        
   8460 ****       123.2500 124.0000 121.0000 Du        
   8461 ****       123.2500 124.0000 121.2500 Du        
   8462 ****       123.2500 124.0000 121.5000 Du        
   8463 ****       123.2500 124.2500 111.2500 Du        
   8464 ****       123.2500 124.2500 119.2500 Du        
   8465 ****       123.2500 124.2500 119.5000 Du        
   8466 ****       123.2500 124.2500 119.7500 Du        
   8467 ****       123.2500 124.2500 120.0000 Du        
   8468 ****       123.2500 124.2500 120.2500 Du        
   8469 ****       123.2500 124.2500 120.5000 Du        
   8470 ****       123.2500 124.2500 120.7500 Du        
   8471 ****       123.2500 124.2500 121.0000 Du        
   8472 ****       123.2500 124.2500 121.2500 Du        
   8473 ****       123.2500 124.5000 111.2500 Du        
   8474 ****       123.2500 124.5000 111.5000 Du        
   8475 ****       123.2500 124.5000 119.7500 Du        
   8476 ****       123.2500 124.5000 120.0000 Du        
   8477 ****       123.2500 124.5000 120.2500 Du        
   8478 ****       123.2500 124.5000 120.5000 Du        
   8479 ****       123.2500 124.5000 120.7500 Du        
   8480 ****       123.2500 124.5000 121.0000 Du        
   8481 ****       123.2500 124.7500 120.0000 Du        
   8482 ****       123.2500 124.7500 120.2500 Du        
   8483 ****       123.2500 124.7500 120.5000 Du        
   8484 ****       123.2500 124.7500 120.7500 Du        
   8485 ****       123.2500 124.7500 121.0000 Du        
   8486 ****       123.2500 125.0000 120.5000 Du        
   8487 ****       123.2500 125.0000 120.7500 Du        
   8488 ****       123.2500 130.7500 162.5000 Du        
   8489 ****       123.2500 130.7500 162.7500 Du        
   8490 ****       123.2500 131.0000 162.0000 Du        
   8491 ****       123.2500 131.0000 162.2500 Du        
   8492 ****       123.2500 131.0000 162.5000 Du        
   8493 ****       123.2500 131.0000 162.7500 Du        
   8494 ****       123.2500 131.0000 163.0000 Du        
   8495 ****       123.2500 131.2500 162.0000 Du        
   8496 ****       123.2500 131.2500 162.2500 Du        
   8497 ****       123.2500 131.2500 162.5000 Du        
   8498 ****       123.2500 131.2500 162.7500 Du        
   8499 ****       123.2500 131.2500 163.0000 Du        
   8500 ****       123.2500 131.2500 163.2500 Du        
   8501 ****       123.2500 131.5000 162.2500 Du        
   8502 ****       123.2500 131.5000 162.5000 Du        
   8503 ****       123.2500 131.5000 162.7500 Du        
   8504 ****       123.2500 131.5000 163.0000 Du        
   8505 ****       123.2500 131.5000 163.2500 Du        
   8506 ****       123.2500 131.5000 163.5000 Du        
   8507 ****       123.2500 131.5000 163.7500 Du        
   8508 ****       123.2500 131.7500 162.0000 Du        
   8509 ****       123.2500 131.7500 162.2500 Du        
   8510 ****       123.2500 131.7500 162.5000 Du        
   8511 ****       123.2500 131.7500 162.7500 Du        
   8512 ****       123.2500 131.7500 163.0000 Du        
   8513 ****       123.2500 131.7500 163.2500 Du        
   8514 ****       123.2500 131.7500 163.5000 Du        
   8515 ****       123.2500 131.7500 163.7500 Du        
   8516 ****       123.2500 132.0000 162.0000 Du        
   8517 ****       123.2500 132.0000 162.2500 Du        
   8518 ****       123.2500 132.0000 162.5000 Du        
   8519 ****       123.2500 132.0000 162.7500 Du        
   8520 ****       123.2500 132.0000 163.0000 Du        
   8521 ****       123.2500 132.0000 163.2500 Du        
   8522 ****       123.2500 132.0000 163.5000 Du        
   8523 ****       123.2500 132.0000 163.7500 Du        
   8524 ****       123.2500 134.0000 136.7500 Du        
   8525 ****       123.2500 134.0000 137.0000 Du        
   8526 ****       123.2500 134.0000 140.0000 Du        
   8527 ****       123.2500 134.0000 140.2500 Du        
   8528 ****       123.2500 134.0000 140.5000 Du        
   8529 ****       123.2500 134.0000 140.7500 Du        
   8530 ****       123.2500 134.2500 137.0000 Du        
   8531 ****       123.2500 134.2500 137.2500 Du        
   8532 ****       123.2500 134.2500 137.5000 Du        
   8533 ****       123.2500 134.2500 137.7500 Du        
   8534 ****       123.2500 134.2500 139.0000 Du        
   8535 ****       123.2500 134.2500 139.2500 Du        
   8536 ****       123.2500 134.2500 139.5000 Du        
   8537 ****       123.2500 134.2500 139.7500 Du        
   8538 ****       123.2500 134.2500 140.0000 Du        
   8539 ****       123.2500 134.2500 140.2500 Du        
   8540 ****       123.2500 134.2500 140.5000 Du        
   8541 ****       123.2500 134.2500 140.7500 Du        
   8542 ****       123.2500 134.5000 137.2500 Du        
   8543 ****       123.2500 134.5000 137.5000 Du        
   8544 ****       123.2500 134.5000 137.7500 Du        
   8545 ****       123.2500 134.5000 138.0000 Du        
   8546 ****       123.2500 134.5000 138.2500 Du        
   8547 ****       123.2500 134.5000 138.5000 Du        
   8548 ****       123.2500 134.5000 138.7500 Du        
   8549 ****       123.2500 134.5000 139.0000 Du        
   8550 ****       123.2500 134.5000 139.2500 Du        
   8551 ****       123.2500 134.5000 139.5000 Du        
   8552 ****       123.2500 134.5000 139.7500 Du        
   8553 ****       123.2500 134.5000 140.0000 Du        
   8554 ****       123.2500 134.5000 140.2500 Du        
   8555 ****       123.2500 134.7500 137.2500 Du        
   8556 ****       123.2500 134.7500 137.5000 Du        
   8557 ****       123.2500 134.7500 137.7500 Du        
   8558 ****       123.2500 134.7500 138.0000 Du        
   8559 ****       123.2500 134.7500 138.2500 Du        
   8560 ****       123.2500 134.7500 138.5000 Du        
   8561 ****       123.2500 134.7500 138.7500 Du        
   8562 ****       123.2500 134.7500 139.0000 Du        
   8563 ****       123.2500 134.7500 139.2500 Du        
   8564 ****       123.2500 134.7500 139.5000 Du        
   8565 ****       123.2500 134.7500 139.7500 Du        
   8566 ****       123.2500 134.7500 140.0000 Du        
   8567 ****       123.2500 134.7500 140.2500 Du        
   8568 ****       123.2500 135.0000 137.5000 Du        
   8569 ****       123.2500 135.0000 137.7500 Du        
   8570 ****       123.2500 135.0000 138.0000 Du        
   8571 ****       123.2500 135.0000 138.2500 Du        
   8572 ****       123.2500 135.0000 138.5000 Du        
   8573 ****       123.2500 135.0000 138.7500 Du        
   8574 ****       123.2500 135.0000 139.0000 Du        
   8575 ****       123.2500 135.0000 139.2500 Du        
   8576 ****       123.2500 135.0000 139.5000 Du        
   8577 ****       123.2500 135.0000 139.7500 Du        
   8578 ****       123.2500 135.0000 140.0000 Du        
   8579 ****       123.2500 135.0000 140.2500 Du        
   8580 ****       123.2500 135.2500 137.5000 Du        
   8581 ****       123.2500 135.2500 137.7500 Du        
   8582 ****       123.2500 135.2500 138.0000 Du        
   8583 ****       123.2500 135.2500 138.2500 Du        
   8584 ****       123.2500 135.2500 138.5000 Du        
   8585 ****       123.2500 136.2500 154.7500 Du        
   8586 ****       123.2500 136.2500 155.0000 Du        
   8587 ****       123.2500 136.5000 154.5000 Du        
   8588 ****       123.2500 136.5000 154.7500 Du        
   8589 ****       123.2500 136.5000 155.0000 Du        
   8590 ****       123.2500 136.7500 154.2500 Du        
   8591 ****       123.2500 136.7500 154.5000 Du        
   8592 ****       123.2500 136.7500 154.7500 Du        
   8593 ****       123.2500 136.7500 155.0000 Du        
   8594 ****       123.2500 137.0000 154.2500 Du        
   8595 ****       123.2500 137.0000 154.5000 Du        
   8596 ****       123.2500 137.0000 154.7500 Du        
   8597 ****       123.2500 137.2500 154.5000 Du        
   8598 ****       123.2500 138.2500  96.0000 Du        
   8599 ****       123.2500 138.2500  96.2500 Du        
   8600 ****       123.2500 138.2500  96.5000 Du        
   8601 ****       123.2500 138.5000  94.0000 Du        
   8602 ****       123.2500 138.5000  94.2500 Du        
   8603 ****       123.2500 138.5000  94.5000 Du        
   8604 ****       123.2500 138.5000  94.7500 Du        
   8605 ****       123.2500 138.5000  95.0000 Du        
   8606 ****       123.2500 138.5000  95.2500 Du        
   8607 ****       123.2500 138.5000  95.5000 Du        
   8608 ****       123.2500 138.5000  95.7500 Du        
   8609 ****       123.2500 138.5000  96.0000 Du        
   8610 ****       123.2500 138.5000  96.2500 Du        
   8611 ****       123.2500 138.5000  96.5000 Du        
   8612 ****       123.2500 138.5000  96.7500 Du        
   8613 ****       123.2500 138.7500  93.7500 Du        
   8614 ****       123.2500 138.7500  94.0000 Du        
   8615 ****       123.2500 138.7500  94.2500 Du        
   8616 ****       123.2500 138.7500  94.5000 Du        
   8617 ****       123.2500 138.7500  94.7500 Du        
   8618 ****       123.2500 138.7500  95.0000 Du        
   8619 ****       123.2500 138.7500  95.2500 Du        
   8620 ****       123.2500 138.7500  95.5000 Du        
   8621 ****       123.2500 138.7500  95.7500 Du        
   8622 ****       123.2500 138.7500  96.0000 Du        
   8623 ****       123.2500 138.7500  96.2500 Du        
   8624 ****       123.2500 138.7500  96.5000 Du        
   8625 ****       123.2500 138.7500  96.7500 Du        
   8626 ****       123.2500 139.0000  94.0000 Du        
   8627 ****       123.2500 139.0000  94.2500 Du        
   8628 ****       123.2500 139.0000  94.5000 Du        
   8629 ****       123.2500 139.0000  94.7500 Du        
   8630 ****       123.2500 139.0000  95.0000 Du        
   8631 ****       123.2500 139.0000  95.2500 Du        
   8632 ****       123.2500 139.0000  95.5000 Du        
   8633 ****       123.2500 139.0000  95.7500 Du        
   8634 ****       123.2500 139.0000  96.0000 Du        
   8635 ****       123.2500 139.0000  96.2500 Du        
   8636 ****       123.2500 139.0000  96.5000 Du        
   8637 ****       123.2500 139.0000  96.7500 Du        
   8638 ****       123.2500 139.2500  94.5000 Du        
   8639 ****       123.2500 139.2500  94.7500 Du        
   8640 ****       123.2500 139.2500  95.0000 Du        
   8641 ****       123.2500 139.2500  95.2500 Du        
   8642 ****       123.2500 139.2500  95.5000 Du        
   8643 ****       123.2500 139.2500  95.7500 Du        
   8644 ****       123.2500 139.2500  96.0000 Du        
   8645 ****       123.2500 139.2500  96.2500 Du        
   8646 ****       123.2500 139.2500  96.5000 Du        
   8647 ****       123.2500 139.2500  96.7500 Du        
   8648 ****       123.2500 139.5000  95.0000 Du        
   8649 ****       123.2500 139.5000  95.2500 Du        
   8650 ****       123.2500 139.5000  95.5000 Du        
   8651 ****       123.2500 139.5000  95.7500 Du        
   8652 ****       123.2500 139.5000  96.0000 Du        
   8653 ****       123.2500 139.5000  96.2500 Du        
   8654 ****       123.2500 139.5000  96.5000 Du        
   8655 ****       123.2500 139.5000  96.7500 Du        
   8656 ****       123.2500 139.7500  95.2500 Du        
   8657 ****       123.2500 139.7500  95.5000 Du        
   8658 ****       123.2500 139.7500  95.7500 Du        
   8659 ****       123.2500 139.7500  96.0000 Du        
   8660 ****       123.2500 139.7500  96.2500 Du        
   8661 ****       123.2500 139.7500  96.5000 Du        
   8662 ****       123.2500 140.0000  95.5000 Du        
   8663 ****       123.2500 140.0000  95.7500 Du        
   8664 ****       123.2500 140.0000  96.0000 Du        
   8665 ****       123.2500 140.0000  96.2500 Du        
   8666 ****       123.2500 140.0000  96.5000 Du        
   8667 ****       123.2500 140.2500  95.7500 Du        
   8668 ****       123.2500 140.2500  96.0000 Du        
   8669 ****       123.2500 140.2500  96.2500 Du        
   8670 ****       123.2500 140.2500  96.5000 Du        
   8671 ****       123.2500 140.5000  96.2500 Du        
   8672 ****       123.2500 144.7500 118.7500 Du        
   8673 ****       123.2500 144.7500 119.0000 Du        
   8674 ****       123.2500 145.0000 118.5000 Du        
   8675 ****       123.2500 145.0000 118.7500 Du        
   8676 ****       123.2500 145.0000 119.0000 Du        
   8677 ****       123.2500 145.0000 119.2500 Du        
   8678 ****       123.2500 145.0000 129.7500 Du        
   8679 ****       123.2500 145.0000 130.0000 Du        
   8680 ****       123.2500 145.0000 130.2500 Du        
   8681 ****       123.2500 145.0000 130.5000 Du        
   8682 ****       123.2500 145.0000 130.7500 Du        
   8683 ****       123.2500 145.2500 118.5000 Du        
   8684 ****       123.2500 145.2500 118.7500 Du        
   8685 ****       123.2500 145.2500 119.0000 Du        
   8686 ****       123.2500 145.2500 119.2500 Du        
   8687 ****       123.2500 145.2500 129.5000 Du        
   8688 ****       123.2500 145.2500 129.7500 Du        
   8689 ****       123.2500 145.2500 130.0000 Du        
   8690 ****       123.2500 145.2500 130.2500 Du        
   8691 ****       123.2500 145.2500 130.5000 Du        
   8692 ****       123.2500 145.2500 130.7500 Du        
   8693 ****       123.2500 145.2500 131.0000 Du        
   8694 ****       123.2500 145.2500 131.2500 Du        
   8695 ****       123.2500 145.2500 131.5000 Du        
   8696 ****       123.2500 145.5000 118.2500 Du        
   8697 ****       123.2500 145.5000 118.5000 Du        
   8698 ****       123.2500 145.5000 118.7500 Du        
   8699 ****       123.2500 145.5000 119.0000 Du        
   8700 ****       123.2500 145.5000 130.0000 Du        
   8701 ****       123.2500 145.5000 130.2500 Du        
   8702 ****       123.2500 145.5000 130.5000 Du        
   8703 ****       123.2500 145.5000 130.7500 Du        
   8704 ****       123.2500 145.5000 131.0000 Du        
   8705 ****       123.2500 145.5000 131.2500 Du        
   8706 ****       123.2500 145.5000 131.5000 Du        
   8707 ****       123.2500 145.5000 131.7500 Du        
   8708 ****       123.2500 145.5000 132.0000 Du        
   8709 ****       123.2500 145.7500 118.0000 Du        
   8710 ****       123.2500 145.7500 118.2500 Du        
   8711 ****       123.2500 145.7500 118.5000 Du        
   8712 ****       123.2500 145.7500 118.7500 Du        
   8713 ****       123.2500 145.7500 119.0000 Du        
   8714 ****       123.2500 145.7500 130.5000 Du        
   8715 ****       123.2500 145.7500 130.7500 Du        
   8716 ****       123.2500 145.7500 131.0000 Du        
   8717 ****       123.2500 145.7500 131.2500 Du        
   8718 ****       123.2500 145.7500 131.5000 Du        
   8719 ****       123.2500 145.7500 131.7500 Du        
   8720 ****       123.2500 145.7500 132.0000 Du        
   8721 ****       123.2500 145.7500 132.2500 Du        
   8722 ****       123.2500 146.0000 118.0000 Du        
   8723 ****       123.2500 146.0000 118.2500 Du        
   8724 ****       123.2500 146.0000 118.7500 Du        
   8725 ****       123.2500 146.0000 130.7500 Du        
   8726 ****       123.2500 146.0000 131.0000 Du        
   8727 ****       123.2500 146.0000 131.2500 Du        
   8728 ****       123.2500 146.0000 131.5000 Du        
   8729 ****       123.2500 146.0000 131.7500 Du        
   8730 ****       123.2500 146.0000 132.0000 Du        
   8731 ****       123.2500 146.0000 132.2500 Du        
   8732 ****       123.2500 146.0000 132.5000 Du        
   8733 ****       123.2500 146.2500 117.7500 Du        
   8734 ****       123.2500 146.2500 118.0000 Du        
   8735 ****       123.2500 146.2500 118.2500 Du        
   8736 ****       123.2500 146.2500 131.5000 Du        
   8737 ****       123.2500 146.2500 131.7500 Du        
   8738 ****       123.2500 146.2500 132.0000 Du        
   8739 ****       123.2500 146.2500 132.7500 Du        
   8740 ****       123.2500 151.0000 151.0000 Du        
   8741 ****       123.2500 151.2500 151.5000 Du        
   8742 ****       123.2500 151.2500 151.7500 Du        
   8743 ****       123.2500 151.5000 151.7500 Du        
   8744 ****       123.2500 151.5000 152.0000 Du        
   8745 ****       123.2500 151.5000 152.2500 Du        
   8746 ****       123.2500 151.7500 151.7500 Du        
   8747 ****       123.2500 151.7500 152.0000 Du        
   8748 ****       123.2500 151.7500 152.2500 Du        
   8749 ****       123.2500 151.7500 152.5000 Du        
   8750 ****       123.2500 152.0000 152.0000 Du        
   8751 ****       123.2500 152.0000 152.2500 Du        
   8752 ****       123.2500 152.0000 152.5000 Du        
   8753 ****       123.2500 152.0000 152.7500 Du        
   8754 ****       123.2500 152.2500 152.2500 Du        
   8755 ****       123.2500 152.2500 152.5000 Du        
   8756 ****       123.2500 152.2500 152.7500 Du        
   8757 ****       123.2500 152.2500 153.0000 Du        
   8758 ****       123.2500 152.5000 152.7500 Du        
   8759 ****       123.2500 152.5000 153.0000 Du        
   8760 ****       123.2500 152.5000 153.2500 Du        
   8761 ****       123.2500 152.5000 153.5000 Du        
   8762 ****       123.2500 152.7500 153.0000 Du        
   8763 ****       123.2500 152.7500 153.2500 Du        
   8764 ****       123.2500 152.7500 153.5000 Du        
   8765 ****       123.2500 152.7500 153.7500 Du        
   8766 ****       123.2500 152.7500 156.2500 Du        
   8767 ****       123.2500 152.7500 156.5000 Du        
   8768 ****       123.2500 152.7500 156.7500 Du        
   8769 ****       123.2500 152.7500 157.0000 Du        
   8770 ****       123.2500 152.7500 157.2500 Du        
   8771 ****       123.2500 152.7500 157.5000 Du        
   8772 ****       123.2500 152.7500 157.7500 Du        
   8773 ****       123.2500 153.0000 155.2500 Du        
   8774 ****       123.2500 153.0000 155.5000 Du        
   8775 ****       123.2500 153.0000 155.7500 Du        
   8776 ****       123.2500 153.0000 156.0000 Du        
   8777 ****       123.2500 153.0000 156.2500 Du        
   8778 ****       123.2500 153.0000 156.5000 Du        
   8779 ****       123.2500 153.0000 156.7500 Du        
   8780 ****       123.2500 153.0000 157.0000 Du        
   8781 ****       123.2500 153.0000 157.2500 Du        
   8782 ****       123.2500 153.0000 157.5000 Du        
   8783 ****       123.2500 153.0000 157.7500 Du        
   8784 ****       123.2500 153.0000 158.0000 Du        
   8785 ****       123.2500 153.2500 155.5000 Du        
   8786 ****       123.2500 153.2500 155.7500 Du        
   8787 ****       123.2500 153.2500 156.0000 Du        
   8788 ****       123.2500 153.2500 156.2500 Du        
   8789 ****       123.2500 153.2500 156.5000 Du        
   8790 ****       123.2500 153.2500 156.7500 Du        
   8791 ****       123.2500 153.2500 157.0000 Du        
   8792 ****       123.2500 153.2500 157.2500 Du        
   8793 ****       123.2500 153.2500 157.5000 Du        
   8794 ****       123.2500 153.2500 157.7500 Du        
   8795 ****       123.2500 153.2500 158.0000 Du        
   8796 ****       123.2500 153.5000 155.7500 Du        
   8797 ****       123.2500 153.5000 156.0000 Du        
   8798 ****       123.2500 153.5000 156.2500 Du        
   8799 ****       123.2500 153.5000 156.5000 Du        
   8800 ****       123.2500 153.5000 156.7500 Du        
   8801 ****       123.2500 153.5000 157.0000 Du        
   8802 ****       123.2500 153.5000 157.2500 Du        
   8803 ****       123.2500 153.5000 157.5000 Du        
   8804 ****       123.2500 153.5000 157.7500 Du        
   8805 ****       123.2500 153.5000 158.0000 Du        
   8806 ****       123.2500 153.7500 156.0000 Du        
   8807 ****       123.2500 153.7500 156.2500 Du        
   8808 ****       123.2500 153.7500 156.5000 Du        
   8809 ****       123.2500 153.7500 156.7500 Du        
   8810 ****       123.2500 153.7500 157.0000 Du        
   8811 ****       123.2500 153.7500 157.2500 Du        
   8812 ****       123.2500 153.7500 157.5000 Du        
   8813 ****       123.2500 153.7500 157.7500 Du        
   8814 ****       123.2500 153.7500 158.0000 Du        
   8815 ****       123.2500 154.0000 156.5000 Du        
   8816 ****       123.2500 154.0000 156.7500 Du        
   8817 ****       123.2500 154.0000 157.0000 Du        
   8818 ****       123.2500 154.0000 157.2500 Du        
   8819 ****       123.2500 154.0000 157.5000 Du        
   8820 ****       123.2500 154.0000 157.7500 Du        
   8821 ****       123.2500 154.0000 158.0000 Du        
   8822 ****       123.2500 154.2500 156.7500 Du        
   8823 ****       123.2500 154.2500 157.0000 Du        
   8824 ****       123.2500 154.2500 157.2500 Du        
   8825 ****       123.2500 154.2500 157.5000 Du        
   8826 ****       123.2500 154.2500 157.7500 Du        
   8827 ****       123.2500 154.5000 157.2500 Du        
   8828 ****       123.2500 154.5000 157.5000 Du        
   8829 ****       123.2500 158.7500 150.5000 Du        
   8830 ****       123.2500 158.7500 150.7500 Du        
   8831 ****       123.2500 158.7500 151.0000 Du        
   8832 ****       123.2500 159.0000 150.5000 Du        
   8833 ****       123.2500 159.0000 150.7500 Du        
   8834 ****       123.2500 159.0000 151.0000 Du        
   8835 ****       123.2500 159.0000 151.2500 Du        
   8836 ****       123.2500 159.2500 150.5000 Du        
   8837 ****       123.2500 159.2500 150.7500 Du        
   8838 ****       123.2500 159.2500 151.0000 Du        
   8839 ****       123.2500 159.2500 151.2500 Du        
   8840 ****       123.2500 159.2500 151.5000 Du        
   8841 ****       123.2500 159.5000 150.5000 Du        
   8842 ****       123.2500 159.5000 150.7500 Du        
   8843 ****       123.2500 159.5000 151.0000 Du        
   8844 ****       123.2500 159.5000 151.2500 Du        
   8845 ****       123.2500 159.5000 151.5000 Du        
   8846 ****       123.2500 159.7500 150.7500 Du        
   8847 ****       123.2500 159.7500 151.0000 Du        
   8848 ****       123.2500 159.7500 151.2500 Du        
   8849 ****       123.2500 159.7500 151.5000 Du        
   8850 ****       123.2500 159.7500 151.7500 Du        
   8851 ****       123.2500 160.0000 151.0000 Du        
   8852 ****       123.2500 160.0000 151.2500 Du        
   8853 ****       123.2500 160.0000 151.5000 Du        
   8854 ****       123.2500 160.0000 151.7500 Du        
   8855 ****       123.2500 160.2500 151.5000 Du        
   8856 ****       123.2500 160.2500 151.7500 Du        
   8857 ****       123.2500 160.2500 152.0000 Du        
   8858 ****       123.2500 161.0000 156.2500 Du        
   8859 ****       123.2500 161.0000 156.5000 Du        
   8860 ****       123.2500 161.0000 156.7500 Du        
   8861 ****       123.2500 161.2500 156.0000 Du        
   8862 ****       123.2500 161.2500 156.2500 Du        
   8863 ****       123.2500 161.2500 156.5000 Du        
   8864 ****       123.2500 161.2500 156.7500 Du        
   8865 ****       123.2500 161.2500 157.0000 Du        
   8866 ****       123.2500 161.5000 156.0000 Du        
   8867 ****       123.2500 161.5000 156.2500 Du        
   8868 ****       123.2500 161.5000 156.5000 Du        
   8869 ****       123.2500 161.5000 156.7500 Du        
   8870 ****       123.2500 161.7500 156.0000 Du        
   8871 ****       123.2500 161.7500 156.2500 Du        
   8872 ****       123.2500 161.7500 156.5000 Du        
   8873 ****       123.2500 161.7500 156.7500 Du        
   8874 ****       123.2500 161.7500 157.0000 Du        
   8875 ****       123.2500 162.0000 156.0000 Du        
   8876 ****       123.2500 162.0000 156.2500 Du        
   8877 ****       123.2500 162.0000 156.5000 Du        
   8878 ****       123.2500 162.0000 156.7500 Du        
   8879 ****       123.2500 162.0000 157.0000 Du        
   8880 ****       123.2500 162.2500 156.5000 Du        
   8881 ****       123.2500 162.2500 156.7500 Du        
   8882 ****       123.2500 162.2500 157.0000 Du        
   8883 ****       123.5000 121.0000 135.2500 Du        
   8884 ****       123.5000 122.2500 116.5000 Du        
   8885 ****       123.5000 122.2500 116.7500 Du        
   8886 ****       123.5000 122.5000 116.5000 Du        
   8887 ****       123.5000 122.5000 116.7500 Du        
   8888 ****       123.5000 122.5000 117.0000 Du        
   8889 ****       123.5000 122.5000 117.2500 Du        
   8890 ****       123.5000 122.5000 121.5000 Du        
   8891 ****       123.5000 122.5000 121.7500 Du        
   8892 ****       123.5000 122.5000 122.0000 Du        
   8893 ****       123.5000 122.7500 116.0000 Du        
   8894 ****       123.5000 122.7500 116.2500 Du        
   8895 ****       123.5000 122.7500 116.5000 Du        
   8896 ****       123.5000 122.7500 116.7500 Du        
   8897 ****       123.5000 122.7500 117.0000 Du        
   8898 ****       123.5000 122.7500 117.2500 Du        
   8899 ****       123.5000 122.7500 117.5000 Du        
   8900 ****       123.5000 122.7500 121.0000 Du        
   8901 ****       123.5000 122.7500 121.2500 Du        
   8902 ****       123.5000 122.7500 121.5000 Du        
   8903 ****       123.5000 122.7500 121.7500 Du        
   8904 ****       123.5000 122.7500 122.0000 Du        
   8905 ****       123.5000 122.7500 122.2500 Du        
   8906 ****       123.5000 122.7500 122.5000 Du        
   8907 ****       123.5000 123.0000 116.2500 Du        
   8908 ****       123.5000 123.0000 116.7500 Du        
   8909 ****       123.5000 123.0000 117.0000 Du        
   8910 ****       123.5000 123.0000 117.2500 Du        
   8911 ****       123.5000 123.0000 117.5000 Du        
   8912 ****       123.5000 123.0000 117.7500 Du        
   8913 ****       123.5000 123.0000 118.0000 Du        
   8914 ****       123.5000 123.0000 120.5000 Du        
   8915 ****       123.5000 123.0000 120.7500 Du        
   8916 ****       123.5000 123.0000 121.0000 Du        
   8917 ****       123.5000 123.0000 121.2500 Du        
   8918 ****       123.5000 123.0000 121.5000 Du        
   8919 ****       123.5000 123.0000 121.7500 Du        
   8920 ****       123.5000 123.0000 122.0000 Du        
   8921 ****       123.5000 123.0000 122.2500 Du        
   8922 ****       123.5000 123.0000 122.5000 Du        
   8923 ****       123.5000 123.2500 110.7500 Du        
   8924 ****       123.5000 123.2500 111.0000 Du        
   8925 ****       123.5000 123.2500 111.2500 Du        
   8926 ****       123.5000 123.2500 111.5000 Du        
   8927 ****       123.5000 123.2500 117.0000 Du        
   8928 ****       123.5000 123.2500 117.2500 Du        
   8929 ****       123.5000 123.2500 117.5000 Du        
   8930 ****       123.5000 123.2500 117.7500 Du        
   8931 ****       123.5000 123.2500 118.0000 Du        
   8932 ****       123.5000 123.2500 118.2500 Du        
   8933 ****       123.5000 123.2500 118.5000 Du        
   8934 ****       123.5000 123.2500 118.7500 Du        
   8935 ****       123.5000 123.2500 119.0000 Du        
   8936 ****       123.5000 123.2500 119.2500 Du        
   8937 ****       123.5000 123.2500 119.5000 Du        
   8938 ****       123.5000 123.2500 119.7500 Du        
   8939 ****       123.5000 123.2500 120.0000 Du        
   8940 ****       123.5000 123.2500 120.2500 Du        
   8941 ****       123.5000 123.2500 120.5000 Du        
   8942 ****       123.5000 123.2500 120.7500 Du        
   8943 ****       123.5000 123.2500 121.0000 Du        
   8944 ****       123.5000 123.2500 121.2500 Du        
   8945 ****       123.5000 123.2500 121.5000 Du        
   8946 ****       123.5000 123.2500 121.7500 Du        
   8947 ****       123.5000 123.2500 122.0000 Du        
   8948 ****       123.5000 123.2500 122.2500 Du        
   8949 ****       123.5000 123.5000 110.7500 Du        
   8950 ****       123.5000 123.5000 111.0000 Du        
   8951 ****       123.5000 123.5000 111.2500 Du        
   8952 ****       123.5000 123.5000 111.5000 Du        
   8953 ****       123.5000 123.5000 111.7500 Du        
   8954 ****       123.5000 123.5000 117.7500 Du        
   8955 ****       123.5000 123.5000 118.0000 Du        
   8956 ****       123.5000 123.5000 118.2500 Du        
   8957 ****       123.5000 123.5000 118.5000 Du        
   8958 ****       123.5000 123.5000 118.7500 Du        
   8959 ****       123.5000 123.5000 119.0000 Du        
   8960 ****       123.5000 123.5000 119.2500 Du        
   8961 ****       123.5000 123.5000 119.5000 Du        
   8962 ****       123.5000 123.5000 119.7500 Du        
   8963 ****       123.5000 123.5000 120.0000 Du        
   8964 ****       123.5000 123.5000 120.2500 Du        
   8965 ****       123.5000 123.5000 120.5000 Du        
   8966 ****       123.5000 123.5000 120.7500 Du        
   8967 ****       123.5000 123.5000 121.0000 Du        
   8968 ****       123.5000 123.5000 121.2500 Du        
   8969 ****       123.5000 123.5000 121.5000 Du        
   8970 ****       123.5000 123.5000 121.7500 Du        
   8971 ****       123.5000 123.5000 122.0000 Du        
   8972 ****       123.5000 123.7500 111.0000 Du        
   8973 ****       123.5000 123.7500 111.2500 Du        
   8974 ****       123.5000 123.7500 111.5000 Du        
   8975 ****       123.5000 123.7500 111.7500 Du        
   8976 ****       123.5000 123.7500 118.2500 Du        
   8977 ****       123.5000 123.7500 118.5000 Du        
   8978 ****       123.5000 123.7500 118.7500 Du        
   8979 ****       123.5000 123.7500 119.0000 Du        
   8980 ****       123.5000 123.7500 119.2500 Du        
   8981 ****       123.5000 123.7500 119.5000 Du        
   8982 ****       123.5000 123.7500 119.7500 Du        
   8983 ****       123.5000 123.7500 120.0000 Du        
   8984 ****       123.5000 123.7500 120.2500 Du        
   8985 ****       123.5000 123.7500 120.5000 Du        
   8986 ****       123.5000 123.7500 120.7500 Du        
   8987 ****       123.5000 123.7500 121.0000 Du        
   8988 ****       123.5000 123.7500 121.2500 Du        
   8989 ****       123.5000 123.7500 121.5000 Du        
   8990 ****       123.5000 124.0000 111.0000 Du        
   8991 ****       123.5000 124.0000 111.2500 Du        
   8992 ****       123.5000 124.0000 111.5000 Du        
   8993 ****       123.5000 124.0000 111.7500 Du        
   8994 ****       123.5000 124.0000 118.7500 Du        
   8995 ****       123.5000 124.0000 119.0000 Du        
   8996 ****       123.5000 124.0000 119.2500 Du        
   8997 ****       123.5000 124.0000 119.5000 Du        
   8998 ****       123.5000 124.0000 119.7500 Du        
   8999 ****       123.5000 124.0000 120.0000 Du        
   9000 ****       123.5000 124.0000 120.2500 Du        
   9001 ****       123.5000 124.0000 120.5000 Du        
   9002 ****       123.5000 124.0000 120.7500 Du        
   9003 ****       123.5000 124.0000 121.0000 Du        
   9004 ****       123.5000 124.0000 121.2500 Du        
   9005 ****       123.5000 124.0000 121.5000 Du        
   9006 ****       123.5000 124.2500 119.2500 Du        
   9007 ****       123.5000 124.2500 119.5000 Du        
   9008 ****       123.5000 124.2500 119.7500 Du        
   9009 ****       123.5000 124.2500 120.0000 Du        
   9010 ****       123.5000 124.2500 120.2500 Du        
   9011 ****       123.5000 124.2500 120.5000 Du        
   9012 ****       123.5000 124.2500 120.7500 Du        
   9013 ****       123.5000 124.2500 121.0000 Du        
   9014 ****       123.5000 124.2500 121.2500 Du        
   9015 ****       123.5000 124.5000 119.5000 Du        
   9016 ****       123.5000 124.5000 119.7500 Du        
   9017 ****       123.5000 124.5000 120.0000 Du        
   9018 ****       123.5000 124.5000 120.2500 Du        
   9019 ****       123.5000 124.5000 120.5000 Du        
   9020 ****       123.5000 124.5000 120.7500 Du        
   9021 ****       123.5000 124.5000 121.0000 Du        
   9022 ****       123.5000 124.5000 121.2500 Du        
   9023 ****       123.5000 124.7500 120.0000 Du        
   9024 ****       123.5000 124.7500 120.2500 Du        
   9025 ****       123.5000 124.7500 120.5000 Du        
   9026 ****       123.5000 124.7500 120.7500 Du        
   9027 ****       123.5000 124.7500 121.0000 Du        
   9028 ****       123.5000 125.0000 120.5000 Du        
   9029 ****       123.5000 125.0000 120.7500 Du        
   9030 ****       123.5000 130.5000 162.5000 Du        
   9031 ****       123.5000 130.7500 162.2500 Du        
   9032 ****       123.5000 130.7500 162.5000 Du        
   9033 ****       123.5000 130.7500 162.7500 Du        
   9034 ****       123.5000 130.7500 163.0000 Du        
   9035 ****       123.5000 130.7500 163.2500 Du        
   9036 ****       123.5000 131.0000 162.2500 Du        
   9037 ****       123.5000 131.0000 162.5000 Du        
   9038 ****       123.5000 131.0000 162.7500 Du        
   9039 ****       123.5000 131.0000 163.0000 Du        
   9040 ****       123.5000 131.0000 163.2500 Du        
   9041 ****       123.5000 131.0000 163.5000 Du        
   9042 ****       123.5000 131.2500 162.0000 Du        
   9043 ****       123.5000 131.2500 162.2500 Du        
   9044 ****       123.5000 131.2500 162.5000 Du        
   9045 ****       123.5000 131.2500 162.7500 Du        
   9046 ****       123.5000 131.2500 163.0000 Du        
   9047 ****       123.5000 131.2500 163.2500 Du        
   9048 ****       123.5000 131.2500 163.5000 Du        
   9049 ****       123.5000 131.2500 163.7500 Du        
   9050 ****       123.5000 131.5000 162.2500 Du        
   9051 ****       123.5000 131.5000 162.5000 Du        
   9052 ****       123.5000 131.5000 162.7500 Du        
   9053 ****       123.5000 131.5000 163.0000 Du        
   9054 ****       123.5000 131.5000 163.2500 Du        
   9055 ****       123.5000 131.5000 163.5000 Du        
   9056 ****       123.5000 131.5000 163.7500 Du        
   9057 ****       123.5000 131.5000 164.0000 Du        
   9058 ****       123.5000 131.7500 162.0000 Du        
   9059 ****       123.5000 131.7500 162.2500 Du        
   9060 ****       123.5000 131.7500 162.5000 Du        
   9061 ****       123.5000 131.7500 162.7500 Du        
   9062 ****       123.5000 131.7500 163.0000 Du        
   9063 ****       123.5000 131.7500 163.2500 Du        
   9064 ****       123.5000 131.7500 163.5000 Du        
   9065 ****       123.5000 131.7500 163.7500 Du        
   9066 ****       123.5000 131.7500 164.0000 Du        
   9067 ****       123.5000 131.7500 164.2500 Du        
   9068 ****       123.5000 132.0000 162.0000 Du        
   9069 ****       123.5000 132.0000 162.2500 Du        
   9070 ****       123.5000 132.0000 162.5000 Du        
   9071 ****       123.5000 132.0000 162.7500 Du        
   9072 ****       123.5000 132.0000 163.0000 Du        
   9073 ****       123.5000 132.0000 163.2500 Du        
   9074 ****       123.5000 132.0000 163.5000 Du        
   9075 ****       123.5000 132.0000 163.7500 Du        
   9076 ****       123.5000 132.0000 164.0000 Du        
   9077 ****       123.5000 132.0000 164.2500 Du        
   9078 ****       123.5000 132.0000 164.5000 Du        
   9079 ****       123.5000 133.7500 140.2500 Du        
   9080 ****       123.5000 133.7500 140.5000 Du        
   9081 ****       123.5000 133.7500 140.7500 Du        
   9082 ****       123.5000 133.7500 141.0000 Du        
   9083 ****       123.5000 134.0000 139.7500 Du        
   9084 ****       123.5000 134.0000 140.0000 Du        
   9085 ****       123.5000 134.0000 140.2500 Du        
   9086 ****       123.5000 134.0000 140.5000 Du        
   9087 ****       123.5000 134.0000 140.7500 Du        
   9088 ****       123.5000 134.0000 141.0000 Du        
   9089 ****       123.5000 134.2500 139.0000 Du        
   9090 ****       123.5000 134.2500 139.2500 Du        
   9091 ****       123.5000 134.2500 139.5000 Du        
   9092 ****       123.5000 134.2500 139.7500 Du        
   9093 ****       123.5000 134.2500 140.0000 Du        
   9094 ****       123.5000 134.2500 140.2500 Du        
   9095 ****       123.5000 134.2500 140.5000 Du        
   9096 ****       123.5000 134.2500 140.7500 Du        
   9097 ****       123.5000 134.2500 141.0000 Du        
   9098 ****       123.5000 134.5000 138.5000 Du        
   9099 ****       123.5000 134.5000 138.7500 Du        
   9100 ****       123.5000 134.5000 139.0000 Du        
   9101 ****       123.5000 134.5000 139.2500 Du        
   9102 ****       123.5000 134.5000 139.5000 Du        
   9103 ****       123.5000 134.5000 139.7500 Du        
   9104 ****       123.5000 134.5000 140.0000 Du        
   9105 ****       123.5000 134.5000 140.2500 Du        
   9106 ****       123.5000 134.5000 140.5000 Du        
   9107 ****       123.5000 134.5000 140.7500 Du        
   9108 ****       123.5000 134.5000 141.0000 Du        
   9109 ****       123.5000 134.7500 138.2500 Du        
   9110 ****       123.5000 134.7500 138.5000 Du        
   9111 ****       123.5000 134.7500 138.7500 Du        
   9112 ****       123.5000 134.7500 139.0000 Du        
   9113 ****       123.5000 134.7500 139.2500 Du        
   9114 ****       123.5000 134.7500 139.5000 Du        
   9115 ****       123.5000 134.7500 139.7500 Du        
   9116 ****       123.5000 134.7500 140.0000 Du        
   9117 ****       123.5000 134.7500 140.2500 Du        
   9118 ****       123.5000 134.7500 140.5000 Du        
   9119 ****       123.5000 134.7500 140.7500 Du        
   9120 ****       123.5000 134.7500 141.0000 Du        
   9121 ****       123.5000 135.0000 138.2500 Du        
   9122 ****       123.5000 135.0000 138.5000 Du        
   9123 ****       123.5000 135.0000 138.7500 Du        
   9124 ****       123.5000 135.0000 139.0000 Du        
   9125 ****       123.5000 135.0000 139.2500 Du        
   9126 ****       123.5000 135.0000 139.5000 Du        
   9127 ****       123.5000 135.0000 139.7500 Du        
   9128 ****       123.5000 135.0000 140.0000 Du        
   9129 ****       123.5000 135.0000 140.2500 Du        
   9130 ****       123.5000 135.0000 140.5000 Du        
   9131 ****       123.5000 135.0000 140.7500 Du        
   9132 ****       123.5000 135.0000 141.0000 Du        
   9133 ****       123.5000 135.0000 141.2500 Du        
   9134 ****       123.5000 135.2500 138.2500 Du        
   9135 ****       123.5000 135.2500 138.7500 Du        
   9136 ****       123.5000 135.2500 139.0000 Du        
   9137 ****       123.5000 135.2500 139.2500 Du        
   9138 ****       123.5000 135.2500 139.5000 Du        
   9139 ****       123.5000 135.2500 139.7500 Du        
   9140 ****       123.5000 135.2500 140.0000 Du        
   9141 ****       123.5000 135.2500 140.2500 Du        
   9142 ****       123.5000 135.2500 140.5000 Du        
   9143 ****       123.5000 135.2500 140.7500 Du        
   9144 ****       123.5000 135.5000 156.2500 Du        
   9145 ****       123.5000 135.7500 155.5000 Du        
   9146 ****       123.5000 135.7500 155.7500 Du        
   9147 ****       123.5000 136.0000 154.7500 Du        
   9148 ****       123.5000 136.0000 155.0000 Du        
   9149 ****       123.5000 136.0000 155.2500 Du        
   9150 ****       123.5000 136.0000 155.5000 Du        
   9151 ****       123.5000 136.2500 154.5000 Du        
   9152 ****       123.5000 136.2500 154.7500 Du        
   9153 ****       123.5000 136.2500 155.0000 Du        
   9154 ****       123.5000 136.2500 155.2500 Du        
   9155 ****       123.5000 136.5000 154.5000 Du        
   9156 ****       123.5000 136.5000 154.7500 Du        
   9157 ****       123.5000 136.5000 155.0000 Du        
   9158 ****       123.5000 136.7500 154.5000 Du        
   9159 ****       123.5000 136.7500 154.7500 Du        
   9160 ****       123.5000 136.7500 155.0000 Du        
   9161 ****       123.5000 137.0000 154.5000 Du        
   9162 ****       123.5000 137.0000 154.7500 Du        
   9163 ****       123.5000 138.2500  94.0000 Du        
   9164 ****       123.5000 138.2500  94.2500 Du        
   9165 ****       123.5000 138.2500  94.5000 Du        
   9166 ****       123.5000 138.2500  94.7500 Du        
   9167 ****       123.5000 138.2500  95.0000 Du        
   9168 ****       123.5000 138.2500  95.2500 Du        
   9169 ****       123.5000 138.2500  95.5000 Du        
   9170 ****       123.5000 138.2500  95.7500 Du        
   9171 ****       123.5000 138.2500  96.0000 Du        
   9172 ****       123.5000 138.2500  96.2500 Du        
   9173 ****       123.5000 138.2500  96.5000 Du        
   9174 ****       123.5000 138.5000  93.5000 Du        
   9175 ****       123.5000 138.5000  93.7500 Du        
   9176 ****       123.5000 138.5000  94.0000 Du        
   9177 ****       123.5000 138.5000  94.2500 Du        
   9178 ****       123.5000 138.5000  94.5000 Du        
   9179 ****       123.5000 138.5000  94.7500 Du        
   9180 ****       123.5000 138.5000  95.0000 Du        
   9181 ****       123.5000 138.5000  95.2500 Du        
   9182 ****       123.5000 138.5000  95.5000 Du        
   9183 ****       123.5000 138.5000  95.7500 Du        
   9184 ****       123.5000 138.5000  96.0000 Du        
   9185 ****       123.5000 138.5000  96.2500 Du        
   9186 ****       123.5000 138.5000  96.5000 Du        
   9187 ****       123.5000 138.5000  96.7500 Du        
   9188 ****       123.5000 138.7500  93.7500 Du        
   9189 ****       123.5000 138.7500  94.0000 Du        
   9190 ****       123.5000 138.7500  94.2500 Du        
   9191 ****       123.5000 138.7500  94.5000 Du        
   9192 ****       123.5000 138.7500  94.7500 Du        
   9193 ****       123.5000 138.7500  95.0000 Du        
   9194 ****       123.5000 138.7500  95.2500 Du        
   9195 ****       123.5000 138.7500  95.5000 Du        
   9196 ****       123.5000 138.7500  95.7500 Du        
   9197 ****       123.5000 138.7500  96.0000 Du        
   9198 ****       123.5000 138.7500  96.2500 Du        
   9199 ****       123.5000 138.7500  96.5000 Du        
   9200 ****       123.5000 138.7500  96.7500 Du        
   9201 ****       123.5000 139.0000  94.0000 Du        
   9202 ****       123.5000 139.0000  94.2500 Du        
   9203 ****       123.5000 139.0000  94.5000 Du        
   9204 ****       123.5000 139.0000  94.7500 Du        
   9205 ****       123.5000 139.0000  95.0000 Du        
   9206 ****       123.5000 139.0000  95.2500 Du        
   9207 ****       123.5000 139.0000  95.5000 Du        
   9208 ****       123.5000 139.0000  95.7500 Du        
   9209 ****       123.5000 139.0000  96.0000 Du        
   9210 ****       123.5000 139.0000  96.2500 Du        
   9211 ****       123.5000 139.0000  96.5000 Du        
   9212 ****       123.5000 139.0000  96.7500 Du        
   9213 ****       123.5000 139.2500  94.5000 Du        
   9214 ****       123.5000 139.2500  94.7500 Du        
   9215 ****       123.5000 139.2500  95.0000 Du        
   9216 ****       123.5000 139.2500  95.2500 Du        
   9217 ****       123.5000 139.2500  95.5000 Du        
   9218 ****       123.5000 139.2500  95.7500 Du        
   9219 ****       123.5000 139.2500  96.0000 Du        
   9220 ****       123.5000 139.2500  96.2500 Du        
   9221 ****       123.5000 139.2500  96.5000 Du        
   9222 ****       123.5000 139.2500  96.7500 Du        
   9223 ****       123.5000 139.5000  95.0000 Du        
   9224 ****       123.5000 139.5000  95.2500 Du        
   9225 ****       123.5000 139.5000  95.5000 Du        
   9226 ****       123.5000 139.5000  95.7500 Du        
   9227 ****       123.5000 139.5000  96.0000 Du        
   9228 ****       123.5000 139.5000  96.2500 Du        
   9229 ****       123.5000 139.5000  96.5000 Du        
   9230 ****       123.5000 139.5000  96.7500 Du        
   9231 ****       123.5000 139.7500  95.5000 Du        
   9232 ****       123.5000 139.7500  95.7500 Du        
   9233 ****       123.5000 139.7500  96.0000 Du        
   9234 ****       123.5000 139.7500  96.2500 Du        
   9235 ****       123.5000 139.7500  96.5000 Du        
   9236 ****       123.5000 139.7500  96.7500 Du        
   9237 ****       123.5000 140.0000  95.7500 Du        
   9238 ****       123.5000 140.0000  96.0000 Du        
   9239 ****       123.5000 140.0000  96.2500 Du        
   9240 ****       123.5000 140.0000  96.5000 Du        
   9241 ****       123.5000 140.0000  96.7500 Du        
   9242 ****       123.5000 140.2500  96.0000 Du        
   9243 ****       123.5000 140.2500  96.2500 Du        
   9244 ****       123.5000 140.2500  96.5000 Du        
   9245 ****       123.5000 140.2500  96.7500 Du        
   9246 ****       123.5000 140.5000  96.2500 Du        
   9247 ****       123.5000 140.5000  96.5000 Du        
   9248 ****       123.5000 142.0000 151.5000 Du        
   9249 ****       123.5000 142.0000 151.7500 Du        
   9250 ****       123.5000 142.0000 152.0000 Du        
   9251 ****       123.5000 142.2500 151.5000 Du        
   9252 ****       123.5000 142.2500 151.7500 Du        
   9253 ****       123.5000 142.2500 152.0000 Du        
   9254 ****       123.5000 142.2500 152.2500 Du        
   9255 ****       123.5000 142.5000 151.5000 Du        
   9256 ****       123.5000 142.5000 151.7500 Du        
   9257 ****       123.5000 142.5000 152.0000 Du        
   9258 ****       123.5000 144.7500 118.5000 Du        
   9259 ****       123.5000 144.7500 118.7500 Du        
   9260 ****       123.5000 144.7500 119.0000 Du        
   9261 ****       123.5000 145.0000 118.5000 Du        
   9262 ****       123.5000 145.0000 118.7500 Du        
   9263 ****       123.5000 145.0000 119.0000 Du        
   9264 ****       123.5000 145.0000 119.2500 Du        
   9265 ****       123.5000 145.0000 130.0000 Du        
   9266 ****       123.5000 145.0000 130.2500 Du        
   9267 ****       123.5000 145.0000 130.5000 Du        
   9268 ****       123.5000 145.0000 130.7500 Du        
   9269 ****       123.5000 145.0000 131.0000 Du        
   9270 ****       123.5000 145.0000 131.2500 Du        
   9271 ****       123.5000 145.2500 118.2500 Du        
   9272 ****       123.5000 145.2500 118.5000 Du        
   9273 ****       123.5000 145.2500 118.7500 Du        
   9274 ****       123.5000 145.2500 119.0000 Du        
   9275 ****       123.5000 145.2500 119.2500 Du        
   9276 ****       123.5000 145.2500 119.5000 Du        
   9277 ****       123.5000 145.2500 129.7500 Du        
   9278 ****       123.5000 145.2500 130.0000 Du        
   9279 ****       123.5000 145.2500 130.2500 Du        
   9280 ****       123.5000 145.2500 130.5000 Du        
   9281 ****       123.5000 145.2500 130.7500 Du        
   9282 ****       123.5000 145.2500 131.0000 Du        
   9283 ****       123.5000 145.2500 131.2500 Du        
   9284 ****       123.5000 145.2500 131.5000 Du        
   9285 ****       123.5000 145.2500 131.7500 Du        
   9286 ****       123.5000 145.2500 132.0000 Du        
   9287 ****       123.5000 145.2500 132.2500 Du        
   9288 ****       123.5000 145.5000 118.2500 Du        
   9289 ****       123.5000 145.5000 118.5000 Du        
   9290 ****       123.5000 145.5000 118.7500 Du        
   9291 ****       123.5000 145.5000 119.0000 Du        
   9292 ****       123.5000 145.5000 119.2500 Du        
   9293 ****       123.5000 145.5000 129.7500 Du        
   9294 ****       123.5000 145.5000 130.0000 Du        
   9295 ****       123.5000 145.5000 130.2500 Du        
   9296 ****       123.5000 145.5000 130.5000 Du        
   9297 ****       123.5000 145.5000 130.7500 Du        
   9298 ****       123.5000 145.5000 131.0000 Du        
   9299 ****       123.5000 145.5000 131.2500 Du        
   9300 ****       123.5000 145.5000 131.5000 Du        
   9301 ****       123.5000 145.5000 131.7500 Du        
   9302 ****       123.5000 145.5000 132.0000 Du        
   9303 ****       123.5000 145.5000 132.2500 Du        
   9304 ****       123.5000 145.7500 118.0000 Du        
   9305 ****       123.5000 145.7500 118.2500 Du        
   9306 ****       123.5000 145.7500 118.5000 Du        
   9307 ****       123.5000 145.7500 118.7500 Du        
   9308 ****       123.5000 145.7500 119.0000 Du        
   9309 ****       123.5000 145.7500 119.2500 Du        
   9310 ****       123.5000 145.7500 130.0000 Du        
   9311 ****       123.5000 145.7500 130.2500 Du        
   9312 ****       123.5000 145.7500 130.5000 Du        
   9313 ****       123.5000 145.7500 130.7500 Du        
   9314 ****       123.5000 145.7500 131.0000 Du        
   9315 ****       123.5000 145.7500 131.2500 Du        
   9316 ****       123.5000 145.7500 131.5000 Du        
   9317 ****       123.5000 145.7500 131.7500 Du        
   9318 ****       123.5000 145.7500 132.0000 Du        
   9319 ****       123.5000 145.7500 132.2500 Du        
   9320 ****       123.5000 145.7500 132.5000 Du        
   9321 ****       123.5000 146.0000 117.7500 Du        
   9322 ****       123.5000 146.0000 118.0000 Du        
   9323 ****       123.5000 146.0000 118.2500 Du        
   9324 ****       123.5000 146.0000 118.5000 Du        
   9325 ****       123.5000 146.0000 118.7500 Du        
   9326 ****       123.5000 146.0000 119.0000 Du        
   9327 ****       123.5000 146.0000 119.2500 Du        
   9328 ****       123.5000 146.0000 130.5000 Du        
   9329 ****       123.5000 146.0000 130.7500 Du        
   9330 ****       123.5000 146.0000 131.0000 Du        
   9331 ****       123.5000 146.0000 131.2500 Du        
   9332 ****       123.5000 146.0000 131.5000 Du        
   9333 ****       123.5000 146.0000 131.7500 Du        
   9334 ****       123.5000 146.0000 132.0000 Du        
   9335 ****       123.5000 146.0000 132.2500 Du        
   9336 ****       123.5000 146.0000 132.5000 Du        
   9337 ****       123.5000 146.0000 132.7500 Du        
   9338 ****       123.5000 146.2500 117.5000 Du        
   9339 ****       123.5000 146.2500 117.7500 Du        
   9340 ****       123.5000 146.2500 118.0000 Du        
   9341 ****       123.5000 146.2500 118.2500 Du        
   9342 ****       123.5000 146.2500 118.5000 Du        
   9343 ****       123.5000 146.2500 131.5000 Du        
   9344 ****       123.5000 146.2500 131.7500 Du        
   9345 ****       123.5000 146.2500 132.0000 Du        
   9346 ****       123.5000 146.2500 132.2500 Du        
   9347 ****       123.5000 146.2500 132.5000 Du        
   9348 ****       123.5000 146.2500 132.7500 Du        
   9349 ****       123.5000 146.2500 133.0000 Du        
   9350 ****       123.5000 146.5000 117.7500 Du        
   9351 ****       123.5000 146.5000 118.0000 Du        
   9352 ****       123.5000 146.5000 118.2500 Du        
   9353 ****       123.5000 146.7500 117.7500 Du        
   9354 ****       123.5000 146.7500 118.0000 Du        
   9355 ****       123.5000 152.2500 153.0000 Du        
   9356 ****       123.5000 152.5000 153.2500 Du        
   9357 ****       123.5000 152.7500 153.5000 Du        
   9358 ****       123.5000 153.0000 155.0000 Du        
   9359 ****       123.5000 153.0000 155.2500 Du        
   9360 ****       123.5000 153.0000 155.5000 Du        
   9361 ****       123.5000 153.0000 155.7500 Du        
   9362 ****       123.5000 153.0000 156.0000 Du        
   9363 ****       123.5000 153.0000 156.2500 Du        
   9364 ****       123.5000 153.0000 156.5000 Du        
   9365 ****       123.5000 153.0000 156.7500 Du        
   9366 ****       123.5000 153.0000 157.0000 Du        
   9367 ****       123.5000 153.0000 157.2500 Du        
   9368 ****       123.5000 153.0000 157.5000 Du        
   9369 ****       123.5000 153.0000 157.7500 Du        
   9370 ****       123.5000 153.0000 158.0000 Du        
   9371 ****       123.5000 153.2500 155.2500 Du        
   9372 ****       123.5000 153.2500 155.5000 Du        
   9373 ****       123.5000 153.2500 155.7500 Du        
   9374 ****       123.5000 153.2500 156.0000 Du        
   9375 ****       123.5000 153.2500 156.2500 Du        
   9376 ****       123.5000 153.2500 156.5000 Du        
   9377 ****       123.5000 153.2500 156.7500 Du        
   9378 ****       123.5000 153.2500 157.0000 Du        
   9379 ****       123.5000 153.2500 157.2500 Du        
   9380 ****       123.5000 153.2500 157.5000 Du        
   9381 ****       123.5000 153.2500 157.7500 Du        
   9382 ****       123.5000 153.2500 158.0000 Du        
   9383 ****       123.5000 153.5000 155.7500 Du        
   9384 ****       123.5000 153.5000 156.0000 Du        
   9385 ****       123.5000 153.5000 156.2500 Du        
   9386 ****       123.5000 153.5000 156.5000 Du        
   9387 ****       123.5000 153.5000 156.7500 Du        
   9388 ****       123.5000 153.5000 157.0000 Du        
   9389 ****       123.5000 153.5000 157.2500 Du        
   9390 ****       123.5000 153.5000 157.5000 Du        
   9391 ****       123.5000 153.5000 157.7500 Du        
   9392 ****       123.5000 153.5000 158.0000 Du        
   9393 ****       123.5000 153.7500 156.0000 Du        
   9394 ****       123.5000 153.7500 156.2500 Du        
   9395 ****       123.5000 153.7500 156.5000 Du        
   9396 ****       123.5000 153.7500 156.7500 Du        
   9397 ****       123.5000 153.7500 157.0000 Du        
   9398 ****       123.5000 153.7500 157.2500 Du        
   9399 ****       123.5000 153.7500 157.5000 Du        
   9400 ****       123.5000 153.7500 157.7500 Du        
   9401 ****       123.5000 153.7500 158.0000 Du        
   9402 ****       123.5000 154.0000 156.2500 Du        
   9403 ****       123.5000 154.0000 156.5000 Du        
   9404 ****       123.5000 154.0000 156.7500 Du        
   9405 ****       123.5000 154.0000 157.0000 Du        
   9406 ****       123.5000 154.0000 157.2500 Du        
   9407 ****       123.5000 154.0000 157.5000 Du        
   9408 ****       123.5000 154.0000 157.7500 Du        
   9409 ****       123.5000 154.0000 158.0000 Du        
   9410 ****       123.5000 154.2500 156.5000 Du        
   9411 ****       123.5000 154.2500 156.7500 Du        
   9412 ****       123.5000 154.2500 157.0000 Du        
   9413 ****       123.5000 154.2500 157.2500 Du        
   9414 ****       123.5000 154.2500 157.5000 Du        
   9415 ****       123.5000 154.2500 157.7500 Du        
   9416 ****       123.5000 154.2500 158.0000 Du        
   9417 ****       123.5000 154.5000 156.7500 Du        
   9418 ****       123.5000 154.5000 157.0000 Du        
   9419 ****       123.5000 154.5000 157.2500 Du        
   9420 ****       123.5000 154.5000 157.5000 Du        
   9421 ****       123.5000 154.5000 157.7500 Du        
   9422 ****       123.5000 154.7500 157.2500 Du        
   9423 ****       123.5000 159.0000 150.5000 Du        
   9424 ****       123.5000 159.0000 150.7500 Du        
   9425 ****       123.5000 159.0000 151.0000 Du        
   9426 ****       123.5000 159.0000 151.2500 Du        
   9427 ****       123.5000 159.2500 150.5000 Du        
   9428 ****       123.5000 159.2500 150.7500 Du        
   9429 ****       123.5000 159.2500 151.0000 Du        
   9430 ****       123.5000 159.2500 151.2500 Du        
   9431 ****       123.5000 159.5000 150.5000 Du        
   9432 ****       123.5000 159.5000 150.7500 Du        
   9433 ****       123.5000 159.5000 151.0000 Du        
   9434 ****       123.5000 159.5000 151.2500 Du        
   9435 ****       123.5000 159.5000 151.5000 Du        
   9436 ****       123.5000 159.7500 150.7500 Du        
   9437 ****       123.5000 159.7500 151.0000 Du        
   9438 ****       123.5000 159.7500 151.2500 Du        
   9439 ****       123.5000 159.7500 151.5000 Du        
   9440 ****       123.5000 159.7500 151.7500 Du        
   9441 ****       123.5000 160.0000 151.2500 Du        
   9442 ****       123.5000 160.0000 151.5000 Du        
   9443 ****       123.5000 160.0000 151.7500 Du        
   9444 ****       123.5000 160.0000 152.0000 Du        
   9445 ****       123.5000 160.2500 151.5000 Du        
   9446 ****       123.5000 160.2500 151.7500 Du        
   9447 ****       123.5000 160.2500 152.0000 Du        
   9448 ****       123.5000 161.0000 156.2500 Du        
   9449 ****       123.5000 161.0000 156.5000 Du        
   9450 ****       123.5000 161.2500 155.7500 Du        
   9451 ****       123.5000 161.2500 156.0000 Du        
   9452 ****       123.5000 161.2500 156.2500 Du        
   9453 ****       123.5000 161.2500 156.5000 Du        
   9454 ****       123.5000 161.5000 156.0000 Du        
   9455 ****       123.5000 161.5000 156.2500 Du        
   9456 ****       123.5000 161.5000 156.5000 Du        
   9457 ****       123.5000 161.7500 155.7500 Du        
   9458 ****       123.5000 161.7500 156.0000 Du        
   9459 ****       123.5000 161.7500 156.2500 Du        
   9460 ****       123.5000 161.7500 156.5000 Du        
   9461 ****       123.5000 161.7500 156.7500 Du        
   9462 ****       123.5000 162.0000 156.2500 Du        
   9463 ****       123.5000 162.0000 156.5000 Du        
   9464 ****       123.5000 162.0000 156.7500 Du        
   9465 ****       123.5000 162.2500 156.7500 Du        
   9466 ****       123.7500 122.2500 116.2500 Du        
   9467 ****       123.7500 122.2500 116.5000 Du        
   9468 ****       123.7500 122.2500 116.7500 Du        
   9469 ****       123.7500 122.5000 116.0000 Du        
   9470 ****       123.7500 122.5000 116.2500 Du        
   9471 ****       123.7500 122.5000 116.5000 Du        
   9472 ****       123.7500 122.5000 116.7500 Du        
   9473 ****       123.7500 122.5000 117.0000 Du        
   9474 ****       123.7500 122.5000 121.5000 Du        
   9475 ****       123.7500 122.5000 121.7500 Du        
   9476 ****       123.7500 122.5000 122.0000 Du        
   9477 ****       123.7500 122.7500 116.0000 Du        
   9478 ****       123.7500 122.7500 116.2500 Du        
   9479 ****       123.7500 122.7500 116.5000 Du        
   9480 ****       123.7500 122.7500 116.7500 Du        
   9481 ****       123.7500 122.7500 117.0000 Du        
   9482 ****       123.7500 122.7500 117.2500 Du        
   9483 ****       123.7500 122.7500 117.5000 Du        
   9484 ****       123.7500 122.7500 121.2500 Du        
   9485 ****       123.7500 122.7500 121.5000 Du        
   9486 ****       123.7500 122.7500 121.7500 Du        
   9487 ****       123.7500 122.7500 122.0000 Du        
   9488 ****       123.7500 122.7500 122.2500 Du        
   9489 ****       123.7500 123.0000 111.0000 Du        
   9490 ****       123.7500 123.0000 111.2500 Du        
   9491 ****       123.7500 123.0000 111.5000 Du        
   9492 ****       123.7500 123.0000 111.7500 Du        
   9493 ****       123.7500 123.0000 116.2500 Du        
   9494 ****       123.7500 123.0000 116.5000 Du        
   9495 ****       123.7500 123.0000 116.7500 Du        
   9496 ****       123.7500 123.0000 117.0000 Du        
   9497 ****       123.7500 123.0000 117.2500 Du        
   9498 ****       123.7500 123.0000 117.5000 Du        
   9499 ****       123.7500 123.0000 117.7500 Du        
   9500 ****       123.7500 123.0000 118.0000 Du        
   9501 ****       123.7500 123.0000 121.0000 Du        
   9502 ****       123.7500 123.0000 121.2500 Du        
   9503 ****       123.7500 123.0000 121.5000 Du        
   9504 ****       123.7500 123.0000 121.7500 Du        
   9505 ****       123.7500 123.0000 122.0000 Du        
   9506 ****       123.7500 123.0000 122.2500 Du        
   9507 ****       123.7500 123.2500 111.0000 Du        
   9508 ****       123.7500 123.2500 111.2500 Du        
   9509 ****       123.7500 123.2500 111.5000 Du        
   9510 ****       123.7500 123.2500 116.7500 Du        
   9511 ****       123.7500 123.2500 117.0000 Du        
   9512 ****       123.7500 123.2500 117.2500 Du        
   9513 ****       123.7500 123.2500 117.5000 Du        
   9514 ****       123.7500 123.2500 117.7500 Du        
   9515 ****       123.7500 123.2500 118.0000 Du        
   9516 ****       123.7500 123.2500 118.2500 Du        
   9517 ****       123.7500 123.2500 118.5000 Du        
   9518 ****       123.7500 123.2500 118.7500 Du        
   9519 ****       123.7500 123.2500 119.0000 Du        
   9520 ****       123.7500 123.2500 120.0000 Du        
   9521 ****       123.7500 123.2500 120.2500 Du        
   9522 ****       123.7500 123.2500 120.5000 Du        
   9523 ****       123.7500 123.2500 120.7500 Du        
   9524 ****       123.7500 123.2500 121.0000 Du        
   9525 ****       123.7500 123.2500 121.2500 Du        
   9526 ****       123.7500 123.2500 121.5000 Du        
   9527 ****       123.7500 123.2500 121.7500 Du        
   9528 ****       123.7500 123.2500 122.0000 Du        
   9529 ****       123.7500 123.5000 110.7500 Du        
   9530 ****       123.7500 123.5000 111.0000 Du        
   9531 ****       123.7500 123.5000 111.2500 Du        
   9532 ****       123.7500 123.5000 111.5000 Du        
   9533 ****       123.7500 123.5000 111.7500 Du        
   9534 ****       123.7500 123.5000 117.5000 Du        
   9535 ****       123.7500 123.5000 117.7500 Du        
   9536 ****       123.7500 123.5000 118.0000 Du        
   9537 ****       123.7500 123.5000 118.2500 Du        
   9538 ****       123.7500 123.5000 118.5000 Du        
   9539 ****       123.7500 123.5000 118.7500 Du        
   9540 ****       123.7500 123.5000 119.0000 Du        
   9541 ****       123.7500 123.5000 119.2500 Du        
   9542 ****       123.7500 123.5000 119.5000 Du        
   9543 ****       123.7500 123.5000 119.7500 Du        
   9544 ****       123.7500 123.5000 120.0000 Du        
   9545 ****       123.7500 123.5000 120.2500 Du        
   9546 ****       123.7500 123.5000 120.5000 Du        
   9547 ****       123.7500 123.5000 120.7500 Du        
   9548 ****       123.7500 123.5000 121.0000 Du        
   9549 ****       123.7500 123.5000 121.2500 Du        
   9550 ****       123.7500 123.5000 121.5000 Du        
   9551 ****       123.7500 123.5000 121.7500 Du        
   9552 ****       123.7500 123.7500 111.0000 Du        
   9553 ****       123.7500 123.7500 111.2500 Du        
   9554 ****       123.7500 123.7500 111.5000 Du        
   9555 ****       123.7500 123.7500 111.7500 Du        
   9556 ****       123.7500 123.7500 118.0000 Du        
   9557 ****       123.7500 123.7500 118.2500 Du        
   9558 ****       123.7500 123.7500 118.5000 Du        
   9559 ****       123.7500 123.7500 118.7500 Du        
   9560 ****       123.7500 123.7500 119.0000 Du        
   9561 ****       123.7500 123.7500 119.2500 Du        
   9562 ****       123.7500 123.7500 119.5000 Du        
   9563 ****       123.7500 123.7500 119.7500 Du        
   9564 ****       123.7500 123.7500 120.0000 Du        
   9565 ****       123.7500 123.7500 120.2500 Du        
   9566 ****       123.7500 123.7500 120.5000 Du        
   9567 ****       123.7500 123.7500 120.7500 Du        
   9568 ****       123.7500 123.7500 121.0000 Du        
   9569 ****       123.7500 123.7500 121.2500 Du        
   9570 ****       123.7500 123.7500 121.5000 Du        
   9571 ****       123.7500 124.0000 118.5000 Du        
   9572 ****       123.7500 124.0000 118.7500 Du        
   9573 ****       123.7500 124.0000 119.0000 Du        
   9574 ****       123.7500 124.0000 119.2500 Du        
   9575 ****       123.7500 124.0000 119.5000 Du        
   9576 ****       123.7500 124.0000 119.7500 Du        
   9577 ****       123.7500 124.0000 120.0000 Du        
   9578 ****       123.7500 124.0000 120.2500 Du        
   9579 ****       123.7500 124.0000 120.5000 Du        
   9580 ****       123.7500 124.0000 120.7500 Du        
   9581 ****       123.7500 124.0000 121.0000 Du        
   9582 ****       123.7500 124.0000 121.2500 Du        
   9583 ****       123.7500 124.2500 119.2500 Du        
   9584 ****       123.7500 124.2500 119.5000 Du        
   9585 ****       123.7500 124.2500 119.7500 Du        
   9586 ****       123.7500 124.2500 120.0000 Du        
   9587 ****       123.7500 124.2500 120.2500 Du        
   9588 ****       123.7500 124.2500 120.5000 Du        
   9589 ****       123.7500 124.2500 120.7500 Du        
   9590 ****       123.7500 124.2500 121.0000 Du        
   9591 ****       123.7500 124.5000 119.5000 Du        
   9592 ****       123.7500 124.5000 119.7500 Du        
   9593 ****       123.7500 124.5000 120.0000 Du        
   9594 ****       123.7500 124.5000 120.2500 Du        
   9595 ****       123.7500 124.5000 120.5000 Du        
   9596 ****       123.7500 124.5000 120.7500 Du        
   9597 ****       123.7500 124.5000 121.0000 Du        
   9598 ****       123.7500 124.7500 120.0000 Du        
   9599 ****       123.7500 124.7500 120.2500 Du        
   9600 ****       123.7500 124.7500 120.5000 Du        
   9601 ****       123.7500 124.7500 120.7500 Du        
   9602 ****       123.7500 124.7500 121.0000 Du        
   9603 ****       123.7500 125.0000 120.5000 Du        
   9604 ****       123.7500 125.0000 120.7500 Du        
   9605 ****       123.7500 126.0000 102.0000 Du        
   9606 ****       123.7500 126.0000 102.2500 Du        
   9607 ****       123.7500 126.0000 102.5000 Du        
   9608 ****       123.7500 126.0000 102.7500 Du        
   9609 ****       123.7500 126.2500 102.2500 Du        
   9610 ****       123.7500 126.2500 102.5000 Du        
   9611 ****       123.7500 126.2500 102.7500 Du        
   9612 ****       123.7500 126.5000 102.5000 Du        
   9613 ****       123.7500 126.5000 102.7500 Du        
   9614 ****       123.7500 130.5000 162.5000 Du        
   9615 ****       123.7500 130.5000 162.7500 Du        
   9616 ****       123.7500 130.5000 163.0000 Du        
   9617 ****       123.7500 130.5000 163.2500 Du        
   9618 ****       123.7500 130.7500 162.2500 Du        
   9619 ****       123.7500 130.7500 162.5000 Du        
   9620 ****       123.7500 130.7500 162.7500 Du        
   9621 ****       123.7500 130.7500 163.0000 Du        
   9622 ****       123.7500 130.7500 163.2500 Du        
   9623 ****       123.7500 130.7500 163.5000 Du        
   9624 ****       123.7500 131.0000 162.2500 Du        
   9625 ****       123.7500 131.0000 162.5000 Du        
   9626 ****       123.7500 131.0000 162.7500 Du        
   9627 ****       123.7500 131.0000 163.0000 Du        
   9628 ****       123.7500 131.0000 163.2500 Du        
   9629 ****       123.7500 131.0000 163.5000 Du        
   9630 ****       123.7500 131.0000 163.7500 Du        
   9631 ****       123.7500 131.2500 162.2500 Du        
   9632 ****       123.7500 131.2500 162.5000 Du        
   9633 ****       123.7500 131.2500 162.7500 Du        
   9634 ****       123.7500 131.2500 163.0000 Du        
   9635 ****       123.7500 131.2500 163.2500 Du        
   9636 ****       123.7500 131.2500 163.5000 Du        
   9637 ****       123.7500 131.2500 163.7500 Du        
   9638 ****       123.7500 131.2500 164.0000 Du        
   9639 ****       123.7500 131.5000 162.2500 Du        
   9640 ****       123.7500 131.5000 162.5000 Du        
   9641 ****       123.7500 131.5000 162.7500 Du        
   9642 ****       123.7500 131.5000 163.0000 Du        
   9643 ****       123.7500 131.5000 163.2500 Du        
   9644 ****       123.7500 131.5000 163.5000 Du        
   9645 ****       123.7500 131.5000 163.7500 Du        
   9646 ****       123.7500 131.5000 164.0000 Du        
   9647 ****       123.7500 131.5000 164.2500 Du        
   9648 ****       123.7500 131.7500 162.2500 Du        
   9649 ****       123.7500 131.7500 162.5000 Du        
   9650 ****       123.7500 131.7500 162.7500 Du        
   9651 ****       123.7500 131.7500 163.0000 Du        
   9652 ****       123.7500 131.7500 163.2500 Du        
   9653 ****       123.7500 131.7500 163.5000 Du        
   9654 ****       123.7500 131.7500 163.7500 Du        
   9655 ****       123.7500 131.7500 164.0000 Du        
   9656 ****       123.7500 131.7500 164.2500 Du        
   9657 ****       123.7500 131.7500 164.5000 Du        
   9658 ****       123.7500 132.0000 162.0000 Du        
   9659 ****       123.7500 132.0000 162.2500 Du        
   9660 ****       123.7500 132.0000 162.5000 Du        
   9661 ****       123.7500 132.0000 162.7500 Du        
   9662 ****       123.7500 132.0000 163.0000 Du        
   9663 ****       123.7500 132.0000 163.2500 Du        
   9664 ****       123.7500 132.0000 163.5000 Du        
   9665 ****       123.7500 132.0000 163.7500 Du        
   9666 ****       123.7500 132.0000 164.0000 Du        
   9667 ****       123.7500 132.0000 164.2500 Du        
   9668 ****       123.7500 132.0000 164.5000 Du        
   9669 ****       123.7500 132.0000 164.7500 Du        
   9670 ****       123.7500 132.0000 165.0000 Du        
   9671 ****       123.7500 132.2500 162.5000 Du        
   9672 ****       123.7500 132.2500 163.0000 Du        
   9673 ****       123.7500 132.2500 163.2500 Du        
   9674 ****       123.7500 132.2500 163.5000 Du        
   9675 ****       123.7500 132.2500 163.7500 Du        
   9676 ****       123.7500 132.2500 164.0000 Du        
   9677 ****       123.7500 132.2500 164.2500 Du        
   9678 ****       123.7500 132.2500 164.5000 Du        
   9679 ****       123.7500 132.2500 164.7500 Du        
   9680 ****       123.7500 132.2500 165.0000 Du        
   9681 ****       123.7500 132.2500 165.2500 Du        
   9682 ****       123.7500 132.5000 164.7500 Du        
   9683 ****       123.7500 132.5000 165.0000 Du        
   9684 ****       123.7500 132.5000 165.2500 Du        
   9685 ****       123.7500 132.5000 165.5000 Du        
   9686 ****       123.7500 132.7500 165.2500 Du        
   9687 ****       123.7500 132.7500 165.5000 Du        
   9688 ****       123.7500 132.7500 165.7500 Du        
   9689 ****       123.7500 133.0000 165.5000 Du        
   9690 ****       123.7500 133.0000 165.7500 Du        
   9691 ****       123.7500 133.2500 165.7500 Du        
   9692 ****       123.7500 133.5000 140.7500 Du        
   9693 ****       123.7500 133.5000 141.0000 Du        
   9694 ****       123.7500 133.7500 140.2500 Du        
   9695 ****       123.7500 133.7500 140.5000 Du        
   9696 ****       123.7500 133.7500 140.7500 Du        
   9697 ****       123.7500 133.7500 141.0000 Du        
   9698 ****       123.7500 133.7500 141.2500 Du        
   9699 ****       123.7500 134.0000 139.7500 Du        
   9700 ****       123.7500 134.0000 140.0000 Du        
   9701 ****       123.7500 134.0000 140.2500 Du        
   9702 ****       123.7500 134.0000 140.5000 Du        
   9703 ****       123.7500 134.0000 140.7500 Du        
   9704 ****       123.7500 134.0000 141.0000 Du        
   9705 ****       123.7500 134.0000 141.2500 Du        
   9706 ****       123.7500 134.2500 139.2500 Du        
   9707 ****       123.7500 134.2500 139.5000 Du        
   9708 ****       123.7500 134.2500 139.7500 Du        
   9709 ****       123.7500 134.2500 140.0000 Du        
   9710 ****       123.7500 134.2500 140.2500 Du        
   9711 ****       123.7500 134.2500 140.5000 Du        
   9712 ****       123.7500 134.2500 140.7500 Du        
   9713 ****       123.7500 134.2500 141.0000 Du        
   9714 ****       123.7500 134.2500 141.2500 Du        
   9715 ****       123.7500 134.5000 139.0000 Du        
   9716 ****       123.7500 134.5000 139.2500 Du        
   9717 ****       123.7500 134.5000 139.5000 Du        
   9718 ****       123.7500 134.5000 139.7500 Du        
   9719 ****       123.7500 134.5000 140.0000 Du        
   9720 ****       123.7500 134.5000 140.2500 Du        
   9721 ****       123.7500 134.5000 140.5000 Du        
   9722 ****       123.7500 134.5000 140.7500 Du        
   9723 ****       123.7500 134.5000 141.0000 Du        
   9724 ****       123.7500 134.5000 141.2500 Du        
   9725 ****       123.7500 134.7500 139.0000 Du        
   9726 ****       123.7500 134.7500 139.2500 Du        
   9727 ****       123.7500 134.7500 139.5000 Du        
   9728 ****       123.7500 134.7500 139.7500 Du        
   9729 ****       123.7500 134.7500 140.0000 Du        
   9730 ****       123.7500 134.7500 140.2500 Du        
   9731 ****       123.7500 134.7500 140.5000 Du        
   9732 ****       123.7500 134.7500 140.7500 Du        
   9733 ****       123.7500 134.7500 141.0000 Du        
   9734 ****       123.7500 135.0000 138.7500 Du        
   9735 ****       123.7500 135.0000 139.0000 Du        
   9736 ****       123.7500 135.0000 139.2500 Du        
   9737 ****       123.7500 135.0000 139.5000 Du        
   9738 ****       123.7500 135.0000 139.7500 Du        
   9739 ****       123.7500 135.0000 140.0000 Du        
   9740 ****       123.7500 135.0000 140.2500 Du        
   9741 ****       123.7500 135.0000 140.5000 Du        
   9742 ****       123.7500 135.0000 140.7500 Du        
   9743 ****       123.7500 135.0000 141.0000 Du        
   9744 ****       123.7500 135.0000 141.2500 Du        
   9745 ****       123.7500 135.2500 139.0000 Du        
   9746 ****       123.7500 135.2500 139.2500 Du        
   9747 ****       123.7500 135.2500 139.5000 Du        
   9748 ****       123.7500 135.2500 139.7500 Du        
   9749 ****       123.7500 135.2500 140.0000 Du        
   9750 ****       123.7500 135.2500 140.2500 Du        
   9751 ****       123.7500 135.2500 140.5000 Du        
   9752 ****       123.7500 135.2500 140.7500 Du        
   9753 ****       123.7500 135.2500 141.0000 Du        
   9754 ****       123.7500 135.5000 139.0000 Du        
   9755 ****       123.7500 135.5000 139.2500 Du        
   9756 ****       123.7500 135.5000 139.5000 Du        
   9757 ****       123.7500 135.5000 139.7500 Du        
   9758 ****       123.7500 135.5000 140.0000 Du        
   9759 ****       123.7500 135.5000 140.2500 Du        
   9760 ****       123.7500 135.5000 140.5000 Du        
   9761 ****       123.7500 135.5000 155.5000 Du        
   9762 ****       123.7500 135.5000 155.7500 Du        
   9763 ****       123.7500 135.5000 156.0000 Du        
   9764 ****       123.7500 135.5000 156.2500 Du        
   9765 ****       123.7500 135.7500 155.0000 Du        
   9766 ****       123.7500 135.7500 155.2500 Du        
   9767 ****       123.7500 135.7500 155.5000 Du        
   9768 ****       123.7500 135.7500 155.7500 Du        
   9769 ****       123.7500 135.7500 156.0000 Du        
   9770 ****       123.7500 136.0000 154.7500 Du        
   9771 ****       123.7500 136.0000 155.0000 Du        
   9772 ****       123.7500 136.0000 155.2500 Du        
   9773 ****       123.7500 136.0000 155.5000 Du        
   9774 ****       123.7500 136.0000 155.7500 Du        
   9775 ****       123.7500 136.2500 154.7500 Du        
   9776 ****       123.7500 136.2500 155.0000 Du        
   9777 ****       123.7500 136.2500 155.2500 Du        
   9778 ****       123.7500 136.2500 155.5000 Du        
   9779 ****       123.7500 136.5000 154.7500 Du        
   9780 ****       123.7500 136.5000 155.0000 Du        
   9781 ****       123.7500 136.5000 155.2500 Du        
   9782 ****       123.7500 136.7500 154.7500 Du        
   9783 ****       123.7500 136.7500 155.0000 Du        
   9784 ****       123.7500 138.0000  93.7500 Du        
   9785 ****       123.7500 138.0000  94.0000 Du        
   9786 ****       123.7500 138.0000  94.2500 Du        
   9787 ****       123.7500 138.0000  96.0000 Du        
   9788 ****       123.7500 138.0000  96.2500 Du        
   9789 ****       123.7500 138.2500  93.2500 Du        
   9790 ****       123.7500 138.2500  93.5000 Du        
   9791 ****       123.7500 138.2500  93.7500 Du        
   9792 ****       123.7500 138.2500  94.0000 Du        
   9793 ****       123.7500 138.2500  94.2500 Du        
   9794 ****       123.7500 138.2500  94.5000 Du        
   9795 ****       123.7500 138.2500  94.7500 Du        
   9796 ****       123.7500 138.2500  95.0000 Du        
   9797 ****       123.7500 138.2500  95.2500 Du        
   9798 ****       123.7500 138.2500  95.5000 Du        
   9799 ****       123.7500 138.2500  95.7500 Du        
   9800 ****       123.7500 138.2500  96.0000 Du        
   9801 ****       123.7500 138.2500  96.2500 Du        
   9802 ****       123.7500 138.2500  96.5000 Du        
   9803 ****       123.7500 138.5000  93.5000 Du        
   9804 ****       123.7500 138.5000  93.7500 Du        
   9805 ****       123.7500 138.5000  94.0000 Du        
   9806 ****       123.7500 138.5000  94.2500 Du        
   9807 ****       123.7500 138.5000  94.5000 Du        
   9808 ****       123.7500 138.5000  94.7500 Du        
   9809 ****       123.7500 138.5000  95.0000 Du        
   9810 ****       123.7500 138.5000  95.2500 Du        
   9811 ****       123.7500 138.5000  95.5000 Du        
   9812 ****       123.7500 138.5000  95.7500 Du        
   9813 ****       123.7500 138.5000  96.0000 Du        
   9814 ****       123.7500 138.5000  96.2500 Du        
   9815 ****       123.7500 138.5000  96.5000 Du        
   9816 ****       123.7500 138.5000  96.7500 Du        
   9817 ****       123.7500 138.7500  93.5000 Du        
   9818 ****       123.7500 138.7500  93.7500 Du        
   9819 ****       123.7500 138.7500  94.0000 Du        
   9820 ****       123.7500 138.7500  94.2500 Du        
   9821 ****       123.7500 138.7500  94.5000 Du        
   9822 ****       123.7500 138.7500  94.7500 Du        
   9823 ****       123.7500 138.7500  95.0000 Du        
   9824 ****       123.7500 138.7500  95.2500 Du        
   9825 ****       123.7500 138.7500  95.5000 Du        
   9826 ****       123.7500 138.7500  95.7500 Du        
   9827 ****       123.7500 138.7500  96.0000 Du        
   9828 ****       123.7500 138.7500  96.2500 Du        
   9829 ****       123.7500 138.7500  96.5000 Du        
   9830 ****       123.7500 138.7500  96.7500 Du        
   9831 ****       123.7500 138.7500  97.0000 Du        
   9832 ****       123.7500 139.0000  94.0000 Du        
   9833 ****       123.7500 139.0000  94.2500 Du        
   9834 ****       123.7500 139.0000  94.5000 Du        
   9835 ****       123.7500 139.0000  94.7500 Du        
   9836 ****       123.7500 139.0000  95.0000 Du        
   9837 ****       123.7500 139.0000  95.2500 Du        
   9838 ****       123.7500 139.0000  95.5000 Du        
   9839 ****       123.7500 139.0000  95.7500 Du        
   9840 ****       123.7500 139.0000  96.0000 Du        
   9841 ****       123.7500 139.0000  96.2500 Du        
   9842 ****       123.7500 139.0000  96.5000 Du        
   9843 ****       123.7500 139.0000  96.7500 Du        
   9844 ****       123.7500 139.0000  97.0000 Du        
   9845 ****       123.7500 139.2500  94.5000 Du        
   9846 ****       123.7500 139.2500  94.7500 Du        
   9847 ****       123.7500 139.2500  95.0000 Du        
   9848 ****       123.7500 139.2500  95.2500 Du        
   9849 ****       123.7500 139.2500  95.5000 Du        
   9850 ****       123.7500 139.2500  95.7500 Du        
   9851 ****       123.7500 139.2500  96.0000 Du        
   9852 ****       123.7500 139.2500  96.2500 Du        
   9853 ****       123.7500 139.2500  96.5000 Du        
   9854 ****       123.7500 139.2500  96.7500 Du        
   9855 ****       123.7500 139.2500  97.0000 Du        
   9856 ****       123.7500 139.5000  95.0000 Du        
   9857 ****       123.7500 139.5000  95.2500 Du        
   9858 ****       123.7500 139.5000  95.5000 Du        
   9859 ****       123.7500 139.5000  95.7500 Du        
   9860 ****       123.7500 139.5000  96.0000 Du        
   9861 ****       123.7500 139.5000  96.2500 Du        
   9862 ****       123.7500 139.5000  96.5000 Du        
   9863 ****       123.7500 139.5000  96.7500 Du        
   9864 ****       123.7500 139.5000  97.0000 Du        
   9865 ****       123.7500 139.7500  95.5000 Du        
   9866 ****       123.7500 139.7500  95.7500 Du        
   9867 ****       123.7500 139.7500  96.0000 Du        
   9868 ****       123.7500 139.7500  96.2500 Du        
   9869 ****       123.7500 139.7500  96.5000 Du        
   9870 ****       123.7500 139.7500  96.7500 Du        
   9871 ****       123.7500 139.7500  97.0000 Du        
   9872 ****       123.7500 140.0000  95.7500 Du        
   9873 ****       123.7500 140.0000  96.0000 Du        
   9874 ****       123.7500 140.0000  96.2500 Du        
   9875 ****       123.7500 140.0000  96.5000 Du        
   9876 ****       123.7500 140.0000  96.7500 Du        
   9877 ****       123.7500 140.0000  97.0000 Du        
   9878 ****       123.7500 140.2500  96.0000 Du        
   9879 ****       123.7500 140.2500  96.2500 Du        
   9880 ****       123.7500 140.2500  96.5000 Du        
   9881 ****       123.7500 140.2500  96.7500 Du        
   9882 ****       123.7500 140.2500  97.0000 Du        
   9883 ****       123.7500 140.5000  96.2500 Du        
   9884 ****       123.7500 140.5000  96.5000 Du        
   9885 ****       123.7500 140.5000  96.7500 Du        
   9886 ****       123.7500 140.5000  97.0000 Du        
   9887 ****       123.7500 140.7500  96.2500 Du        
   9888 ****       123.7500 140.7500  96.5000 Du        
   9889 ****       123.7500 140.7500  96.7500 Du        
   9890 ****       123.7500 140.7500  97.0000 Du        
   9891 ****       123.7500 141.0000  96.7500 Du        
   9892 ****       123.7500 141.7500 151.2500 Du        
   9893 ****       123.7500 141.7500 151.5000 Du        
   9894 ****       123.7500 141.7500 151.7500 Du        
   9895 ****       123.7500 142.0000 151.2500 Du        
   9896 ****       123.7500 142.0000 151.5000 Du        
   9897 ****       123.7500 142.0000 151.7500 Du        
   9898 ****       123.7500 142.0000 152.0000 Du        
   9899 ****       123.7500 142.2500 151.0000 Du        
   9900 ****       123.7500 142.2500 151.2500 Du        
   9901 ****       123.7500 142.2500 151.5000 Du        
   9902 ****       123.7500 142.2500 151.7500 Du        
   9903 ****       123.7500 142.2500 152.0000 Du        
   9904 ****       123.7500 142.2500 152.2500 Du        
   9905 ****       123.7500 142.5000 150.7500 Du        
   9906 ****       123.7500 142.5000 151.0000 Du        
   9907 ****       123.7500 142.5000 151.2500 Du        
   9908 ****       123.7500 142.5000 151.5000 Du        
   9909 ****       123.7500 142.5000 151.7500 Du        
   9910 ****       123.7500 142.5000 152.0000 Du        
   9911 ****       123.7500 142.5000 152.2500 Du        
   9912 ****       123.7500 144.7500 118.5000 Du        
   9913 ****       123.7500 144.7500 118.7500 Du        
   9914 ****       123.7500 144.7500 119.0000 Du        
   9915 ****       123.7500 145.0000 118.2500 Du        
   9916 ****       123.7500 145.0000 118.5000 Du        
   9917 ****       123.7500 145.0000 118.7500 Du        
   9918 ****       123.7500 145.0000 119.0000 Du        
   9919 ****       123.7500 145.0000 119.2500 Du        
   9920 ****       123.7500 145.0000 119.5000 Du        
   9921 ****       123.7500 145.0000 130.0000 Du        
   9922 ****       123.7500 145.0000 130.2500 Du        
   9923 ****       123.7500 145.0000 130.5000 Du        
   9924 ****       123.7500 145.0000 130.7500 Du        
   9925 ****       123.7500 145.0000 131.0000 Du        
   9926 ****       123.7500 145.0000 131.2500 Du        
   9927 ****       123.7500 145.0000 131.5000 Du        
   9928 ****       123.7500 145.0000 131.7500 Du        
   9929 ****       123.7500 145.0000 132.0000 Du        
   9930 ****       123.7500 145.2500 118.2500 Du        
   9931 ****       123.7500 145.2500 118.5000 Du        
   9932 ****       123.7500 145.2500 118.7500 Du        
   9933 ****       123.7500 145.2500 119.0000 Du        
   9934 ****       123.7500 145.2500 119.2500 Du        
   9935 ****       123.7500 145.2500 119.5000 Du        
   9936 ****       123.7500 145.2500 119.7500 Du        
   9937 ****       123.7500 145.2500 129.7500 Du        
   9938 ****       123.7500 145.2500 130.0000 Du        
   9939 ****       123.7500 145.2500 130.2500 Du        
   9940 ****       123.7500 145.2500 130.5000 Du        
   9941 ****       123.7500 145.2500 130.7500 Du        
   9942 ****       123.7500 145.2500 131.0000 Du        
   9943 ****       123.7500 145.2500 131.2500 Du        
   9944 ****       123.7500 145.2500 131.5000 Du        
   9945 ****       123.7500 145.2500 131.7500 Du        
   9946 ****       123.7500 145.2500 132.0000 Du        
   9947 ****       123.7500 145.2500 132.2500 Du        
   9948 ****       123.7500 145.2500 132.5000 Du        
   9949 ****       123.7500 145.5000 118.0000 Du        
   9950 ****       123.7500 145.5000 118.2500 Du        
   9951 ****       123.7500 145.5000 118.5000 Du        
   9952 ****       123.7500 145.5000 118.7500 Du        
   9953 ****       123.7500 145.5000 119.0000 Du        
   9954 ****       123.7500 145.5000 119.2500 Du        
   9955 ****       123.7500 145.5000 129.7500 Du        
   9956 ****       123.7500 145.5000 130.0000 Du        
   9957 ****       123.7500 145.5000 130.2500 Du        
   9958 ****       123.7500 145.5000 130.5000 Du        
   9959 ****       123.7500 145.5000 130.7500 Du        
   9960 ****       123.7500 145.5000 131.0000 Du        
   9961 ****       123.7500 145.5000 131.2500 Du        
   9962 ****       123.7500 145.5000 131.5000 Du        
   9963 ****       123.7500 145.5000 131.7500 Du        
   9964 ****       123.7500 145.5000 132.0000 Du        
   9965 ****       123.7500 145.5000 132.2500 Du        
   9966 ****       123.7500 145.5000 132.5000 Du        
   9967 ****       123.7500 145.7500 117.7500 Du        
   9968 ****       123.7500 145.7500 118.0000 Du        
   9969 ****       123.7500 145.7500 118.2500 Du        
   9970 ****       123.7500 145.7500 118.5000 Du        
   9971 ****       123.7500 145.7500 118.7500 Du        
   9972 ****       123.7500 145.7500 119.0000 Du        
   9973 ****       123.7500 145.7500 119.2500 Du        
   9974 ****       123.7500 145.7500 130.0000 Du        
   9975 ****       123.7500 145.7500 130.2500 Du        
   9976 ****       123.7500 145.7500 130.5000 Du        
   9977 ****       123.7500 145.7500 130.7500 Du        
   9978 ****       123.7500 145.7500 131.0000 Du        
   9979 ****       123.7500 145.7500 131.2500 Du        
   9980 ****       123.7500 145.7500 131.5000 Du        
   9981 ****       123.7500 145.7500 131.7500 Du        
   9982 ****       123.7500 145.7500 132.0000 Du        
   9983 ****       123.7500 145.7500 132.2500 Du        
   9984 ****       123.7500 145.7500 132.5000 Du        
   9985 ****       123.7500 145.7500 132.7500 Du        
   9986 ****       123.7500 146.0000 117.7500 Du        
   9987 ****       123.7500 146.0000 118.0000 Du        
   9988 ****       123.7500 146.0000 118.2500 Du        
   9989 ****       123.7500 146.0000 118.5000 Du        
   9990 ****       123.7500 146.0000 118.7500 Du        
   9991 ****       123.7500 146.0000 119.0000 Du        
   9992 ****       123.7500 146.0000 119.2500 Du        
   9993 ****       123.7500 146.0000 130.5000 Du        
   9994 ****       123.7500 146.0000 130.7500 Du        
   9995 ****       123.7500 146.0000 131.0000 Du        
   9996 ****       123.7500 146.0000 131.2500 Du        
   9997 ****       123.7500 146.0000 131.5000 Du        
   9998 ****       123.7500 146.0000 131.7500 Du        
   9999 ****       123.7500 146.0000 132.0000 Du        
  10000 ****       123.7500 146.0000 132.2500 Du        
  10001 ****       123.7500 146.0000 132.5000 Du        
  10002 ****       123.7500 146.0000 132.7500 Du        
  10003 ****       123.7500 146.0000 133.0000 Du        
  10004 ****       123.7500 146.2500 117.5000 Du        
  10005 ****       123.7500 146.2500 117.7500 Du        
  10006 ****       123.7500 146.2500 118.0000 Du        
  10007 ****       123.7500 146.2500 118.2500 Du        
  10008 ****       123.7500 146.2500 118.5000 Du        
  10009 ****       123.7500 146.2500 118.7500 Du        
  10010 ****       123.7500 146.2500 119.0000 Du        
  10011 ****       123.7500 146.2500 131.5000 Du        
  10012 ****       123.7500 146.2500 131.7500 Du        
  10013 ****       123.7500 146.2500 132.0000 Du        
  10014 ****       123.7500 146.2500 132.2500 Du        
  10015 ****       123.7500 146.2500 132.5000 Du        
  10016 ****       123.7500 146.2500 132.7500 Du        
  10017 ****       123.7500 146.2500 133.0000 Du        
  10018 ****       123.7500 146.2500 133.2500 Du        
  10019 ****       123.7500 146.5000 117.7500 Du        
  10020 ****       123.7500 146.5000 118.0000 Du        
  10021 ****       123.7500 146.5000 118.2500 Du        
  10022 ****       123.7500 146.7500 117.7500 Du        
  10023 ****       123.7500 146.7500 118.0000 Du        
  10024 ****       123.7500 146.7500 118.2500 Du        
  10025 ****       123.7500 153.0000 155.0000 Du        
  10026 ****       123.7500 153.0000 155.2500 Du        
  10027 ****       123.7500 153.0000 155.5000 Du        
  10028 ****       123.7500 153.0000 155.7500 Du        
  10029 ****       123.7500 153.0000 156.0000 Du        
  10030 ****       123.7500 153.0000 156.2500 Du        
  10031 ****       123.7500 153.0000 156.5000 Du        
  10032 ****       123.7500 153.0000 156.7500 Du        
  10033 ****       123.7500 153.0000 157.0000 Du        
  10034 ****       123.7500 153.0000 157.2500 Du        
  10035 ****       123.7500 153.0000 157.5000 Du        
  10036 ****       123.7500 153.0000 157.7500 Du        
  10037 ****       123.7500 153.2500 155.2500 Du        
  10038 ****       123.7500 153.2500 155.5000 Du        
  10039 ****       123.7500 153.2500 155.7500 Du        
  10040 ****       123.7500 153.2500 156.0000 Du        
  10041 ****       123.7500 153.2500 156.2500 Du        
  10042 ****       123.7500 153.2500 156.5000 Du        
  10043 ****       123.7500 153.2500 156.7500 Du        
  10044 ****       123.7500 153.2500 157.0000 Du        
  10045 ****       123.7500 153.2500 157.2500 Du        
  10046 ****       123.7500 153.2500 157.5000 Du        
  10047 ****       123.7500 153.2500 157.7500 Du        
  10048 ****       123.7500 153.2500 158.0000 Du        
  10049 ****       123.7500 153.5000 155.5000 Du        
  10050 ****       123.7500 153.5000 155.7500 Du        
  10051 ****       123.7500 153.5000 156.0000 Du        
  10052 ****       123.7500 153.5000 156.2500 Du        
  10053 ****       123.7500 153.5000 156.5000 Du        
  10054 ****       123.7500 153.5000 156.7500 Du        
  10055 ****       123.7500 153.5000 157.0000 Du        
  10056 ****       123.7500 153.5000 157.2500 Du        
  10057 ****       123.7500 153.5000 157.5000 Du        
  10058 ****       123.7500 153.5000 157.7500 Du        
  10059 ****       123.7500 153.5000 158.0000 Du        
  10060 ****       123.7500 153.7500 156.0000 Du        
  10061 ****       123.7500 153.7500 156.2500 Du        
  10062 ****       123.7500 153.7500 156.5000 Du        
  10063 ****       123.7500 153.7500 156.7500 Du        
  10064 ****       123.7500 153.7500 157.0000 Du        
  10065 ****       123.7500 153.7500 157.2500 Du        
  10066 ****       123.7500 153.7500 157.5000 Du        
  10067 ****       123.7500 153.7500 157.7500 Du        
  10068 ****       123.7500 153.7500 158.0000 Du        
  10069 ****       123.7500 154.0000 156.2500 Du        
  10070 ****       123.7500 154.0000 156.5000 Du        
  10071 ****       123.7500 154.0000 156.7500 Du        
  10072 ****       123.7500 154.0000 157.0000 Du        
  10073 ****       123.7500 154.0000 157.2500 Du        
  10074 ****       123.7500 154.0000 157.5000 Du        
  10075 ****       123.7500 154.0000 157.7500 Du        
  10076 ****       123.7500 154.0000 158.0000 Du        
  10077 ****       123.7500 154.2500 156.5000 Du        
  10078 ****       123.7500 154.2500 156.7500 Du        
  10079 ****       123.7500 154.2500 157.0000 Du        
  10080 ****       123.7500 154.2500 157.2500 Du        
  10081 ****       123.7500 154.2500 157.5000 Du        
  10082 ****       123.7500 154.2500 157.7500 Du        
  10083 ****       123.7500 154.2500 158.0000 Du        
  10084 ****       123.7500 154.5000 156.7500 Du        
  10085 ****       123.7500 154.5000 157.0000 Du        
  10086 ****       123.7500 154.5000 157.2500 Du        
  10087 ****       123.7500 154.5000 157.5000 Du        
  10088 ****       123.7500 154.5000 157.7500 Du        
  10089 ****       123.7500 154.5000 158.0000 Du        
  10090 ****       123.7500 154.7500 157.0000 Du        
  10091 ****       123.7500 154.7500 157.2500 Du        
  10092 ****       123.7500 154.7500 157.5000 Du        
  10093 ****       123.7500 154.7500 157.7500 Du        
  10094 ****       123.7500 157.0000 106.2500 Du        
  10095 ****       123.7500 159.2500 150.7500 Du        
  10096 ****       123.7500 159.2500 151.0000 Du        
  10097 ****       123.7500 159.2500 151.2500 Du        
  10098 ****       123.7500 159.5000 150.7500 Du        
  10099 ****       123.7500 159.5000 151.0000 Du        
  10100 ****       123.7500 159.5000 151.2500 Du        
  10101 ****       123.7500 159.5000 151.5000 Du        
  10102 ****       123.7500 159.7500 151.2500 Du        
  10103 ****       123.7500 159.7500 151.5000 Du        
  10104 ****       123.7500 160.0000 151.7500 Du        
  10105 ****       123.7500 161.2500 155.7500 Du        
  10106 ****       123.7500 161.2500 156.0000 Du        
  10107 ****       123.7500 161.2500 156.2500 Du        
  10108 ****       123.7500 161.5000 155.7500 Du        
  10109 ****       123.7500 161.5000 156.0000 Du        
  10110 ****       123.7500 161.5000 156.2500 Du        
  10111 ****       123.7500 161.7500 155.7500 Du        
  10112 ****       123.7500 161.7500 156.0000 Du        
  10113 ****       123.7500 161.7500 156.2500 Du        
  10114 ****       123.7500 162.0000 156.0000 Du        
  10115 ****       123.7500 162.0000 156.2500 Du        
  10116 ****       123.7500 162.0000 156.5000 Du        
  10117 ****       124.0000 122.5000 116.5000 Du        
  10118 ****       124.0000 122.5000 116.7500 Du        
  10119 ****       124.0000 122.7500 116.2500 Du        
  10120 ****       124.0000 122.7500 116.5000 Du        
  10121 ****       124.0000 122.7500 116.7500 Du        
  10122 ****       124.0000 122.7500 117.0000 Du        
  10123 ****       124.0000 122.7500 117.2500 Du        
  10124 ****       124.0000 122.7500 121.5000 Du        
  10125 ****       124.0000 122.7500 121.7500 Du        
  10126 ****       124.0000 122.7500 122.0000 Du        
  10127 ****       124.0000 123.0000 111.2500 Du        
  10128 ****       124.0000 123.0000 116.5000 Du        
  10129 ****       124.0000 123.0000 116.7500 Du        
  10130 ****       124.0000 123.0000 117.0000 Du        
  10131 ****       124.0000 123.0000 117.2500 Du        
  10132 ****       124.0000 123.0000 117.5000 Du        
  10133 ****       124.0000 123.0000 117.7500 Du        
  10134 ****       124.0000 123.0000 121.0000 Du        
  10135 ****       124.0000 123.0000 121.2500 Du        
  10136 ****       124.0000 123.0000 121.5000 Du        
  10137 ****       124.0000 123.0000 121.7500 Du        
  10138 ****       124.0000 123.0000 122.0000 Du        
  10139 ****       124.0000 123.2500 111.2500 Du        
  10140 ****       124.0000 123.2500 116.7500 Du        
  10141 ****       124.0000 123.2500 117.0000 Du        
  10142 ****       124.0000 123.2500 117.2500 Du        
  10143 ****       124.0000 123.2500 117.5000 Du        
  10144 ****       124.0000 123.2500 117.7500 Du        
  10145 ****       124.0000 123.2500 118.0000 Du        
  10146 ****       124.0000 123.2500 118.2500 Du        
  10147 ****       124.0000 123.2500 120.5000 Du        
  10148 ****       124.0000 123.2500 120.7500 Du        
  10149 ****       124.0000 123.2500 121.0000 Du        
  10150 ****       124.0000 123.2500 121.2500 Du        
  10151 ****       124.0000 123.2500 121.5000 Du        
  10152 ****       124.0000 123.2500 121.7500 Du        
  10153 ****       124.0000 123.5000 111.2500 Du        
  10154 ****       124.0000 123.5000 117.5000 Du        
  10155 ****       124.0000 123.5000 117.7500 Du        
  10156 ****       124.0000 123.5000 118.0000 Du        
  10157 ****       124.0000 123.5000 118.2500 Du        
  10158 ****       124.0000 123.5000 118.5000 Du        
  10159 ****       124.0000 123.5000 118.7500 Du        
  10160 ****       124.0000 123.5000 119.0000 Du        
  10161 ****       124.0000 123.5000 119.2500 Du        
  10162 ****       124.0000 123.5000 119.5000 Du        
  10163 ****       124.0000 123.5000 119.7500 Du        
  10164 ****       124.0000 123.5000 120.0000 Du        
  10165 ****       124.0000 123.5000 120.2500 Du        
  10166 ****       124.0000 123.5000 120.5000 Du        
  10167 ****       124.0000 123.5000 120.7500 Du        
  10168 ****       124.0000 123.5000 121.0000 Du        
  10169 ****       124.0000 123.5000 121.2500 Du        
  10170 ****       124.0000 123.5000 121.5000 Du        
  10171 ****       124.0000 123.7500 118.0000 Du        
  10172 ****       124.0000 123.7500 118.2500 Du        
  10173 ****       124.0000 123.7500 118.5000 Du        
  10174 ****       124.0000 123.7500 118.7500 Du        
  10175 ****       124.0000 123.7500 119.0000 Du        
  10176 ****       124.0000 123.7500 119.2500 Du        
  10177 ****       124.0000 123.7500 119.5000 Du        
  10178 ****       124.0000 123.7500 119.7500 Du        
  10179 ****       124.0000 123.7500 120.0000 Du        
  10180 ****       124.0000 123.7500 120.2500 Du        
  10181 ****       124.0000 123.7500 120.5000 Du        
  10182 ****       124.0000 123.7500 120.7500 Du        
  10183 ****       124.0000 123.7500 121.0000 Du        
  10184 ****       124.0000 123.7500 121.2500 Du        
  10185 ****       124.0000 124.0000 118.5000 Du        
  10186 ****       124.0000 124.0000 118.7500 Du        
  10187 ****       124.0000 124.0000 119.0000 Du        
  10188 ****       124.0000 124.0000 119.2500 Du        
  10189 ****       124.0000 124.0000 119.5000 Du        
  10190 ****       124.0000 124.0000 119.7500 Du        
  10191 ****       124.0000 124.0000 120.0000 Du        
  10192 ****       124.0000 124.0000 120.2500 Du        
  10193 ****       124.0000 124.0000 120.5000 Du        
  10194 ****       124.0000 124.0000 120.7500 Du        
  10195 ****       124.0000 124.0000 121.0000 Du        
  10196 ****       124.0000 124.2500 119.0000 Du        
  10197 ****       124.0000 124.2500 119.2500 Du        
  10198 ****       124.0000 124.2500 119.5000 Du        
  10199 ****       124.0000 124.2500 119.7500 Du        
  10200 ****       124.0000 124.2500 120.0000 Du        
  10201 ****       124.0000 124.2500 120.2500 Du        
  10202 ****       124.0000 124.2500 120.5000 Du        
  10203 ****       124.0000 124.2500 120.7500 Du        
  10204 ****       124.0000 124.2500 121.0000 Du        
  10205 ****       124.0000 124.5000 119.5000 Du        
  10206 ****       124.0000 124.5000 119.7500 Du        
  10207 ****       124.0000 124.5000 120.0000 Du        
  10208 ****       124.0000 124.5000 120.2500 Du        
  10209 ****       124.0000 124.5000 120.5000 Du        
  10210 ****       124.0000 124.5000 120.7500 Du        
  10211 ****       124.0000 124.7500 120.0000 Du        
  10212 ****       124.0000 124.7500 120.2500 Du        
  10213 ****       124.0000 124.7500 120.5000 Du        
  10214 ****       124.0000 124.7500 120.7500 Du        
  10215 ****       124.0000 125.7500 102.2500 Du        
  10216 ****       124.0000 125.7500 102.5000 Du        
  10217 ****       124.0000 126.0000 101.2500 Du        
  10218 ****       124.0000 126.0000 102.0000 Du        
  10219 ****       124.0000 126.0000 102.2500 Du        
  10220 ****       124.0000 126.0000 102.5000 Du        
  10221 ****       124.0000 126.0000 102.7500 Du        
  10222 ****       124.0000 126.2500 101.0000 Du        
  10223 ****       124.0000 126.2500 101.2500 Du        
  10224 ****       124.0000 126.2500 101.7500 Du        
  10225 ****       124.0000 126.2500 102.0000 Du        
  10226 ****       124.0000 126.2500 102.2500 Du        
  10227 ****       124.0000 126.2500 102.5000 Du        
  10228 ****       124.0000 126.2500 102.7500 Du        
  10229 ****       124.0000 126.5000  99.2500 Du        
  10230 ****       124.0000 126.5000  99.5000 Du        
  10231 ****       124.0000 126.5000  99.7500 Du        
  10232 ****       124.0000 126.5000 100.0000 Du        
  10233 ****       124.0000 126.5000 101.2500 Du        
  10234 ****       124.0000 126.5000 101.5000 Du        
  10235 ****       124.0000 126.5000 101.7500 Du        
  10236 ****       124.0000 126.5000 102.0000 Du        
  10237 ****       124.0000 126.5000 102.2500 Du        
  10238 ****       124.0000 126.5000 102.5000 Du        
  10239 ****       124.0000 126.5000 102.7500 Du        
  10240 ****       124.0000 126.7500  99.2500 Du        
  10241 ****       124.0000 126.7500 102.2500 Du        
  10242 ****       124.0000 126.7500 102.5000 Du        
  10243 ****       124.0000 126.7500 102.7500 Du        
  10244 ****       124.0000 130.5000 162.5000 Du        
  10245 ****       124.0000 130.5000 162.7500 Du        
  10246 ****       124.0000 130.5000 163.0000 Du        
  10247 ****       124.0000 130.5000 163.2500 Du        
  10248 ****       124.0000 130.5000 163.5000 Du        
  10249 ****       124.0000 130.7500 162.5000 Du        
  10250 ****       124.0000 130.7500 162.7500 Du        
  10251 ****       124.0000 130.7500 163.0000 Du        
  10252 ****       124.0000 130.7500 163.2500 Du        
  10253 ****       124.0000 130.7500 163.5000 Du        
  10254 ****       124.0000 130.7500 163.7500 Du        
  10255 ****       124.0000 131.0000 162.2500 Du        
  10256 ****       124.0000 131.0000 162.5000 Du        
  10257 ****       124.0000 131.0000 162.7500 Du        
  10258 ****       124.0000 131.0000 163.0000 Du        
  10259 ****       124.0000 131.0000 163.2500 Du        
  10260 ****       124.0000 131.0000 163.5000 Du        
  10261 ****       124.0000 131.0000 163.7500 Du        
  10262 ****       124.0000 131.0000 164.0000 Du        
  10263 ****       124.0000 131.2500 162.2500 Du        
  10264 ****       124.0000 131.2500 162.5000 Du        
  10265 ****       124.0000 131.2500 162.7500 Du        
  10266 ****       124.0000 131.2500 163.0000 Du        
  10267 ****       124.0000 131.2500 163.2500 Du        
  10268 ****       124.0000 131.2500 163.5000 Du        
  10269 ****       124.0000 131.2500 163.7500 Du        
  10270 ****       124.0000 131.2500 164.0000 Du        
  10271 ****       124.0000 131.2500 164.2500 Du        
  10272 ****       124.0000 131.5000 162.5000 Du        
  10273 ****       124.0000 131.5000 162.7500 Du        
  10274 ****       124.0000 131.5000 163.0000 Du        
  10275 ****       124.0000 131.5000 163.2500 Du        
  10276 ****       124.0000 131.5000 163.5000 Du        
  10277 ****       124.0000 131.5000 163.7500 Du        
  10278 ****       124.0000 131.5000 164.0000 Du        
  10279 ****       124.0000 131.5000 164.2500 Du        
  10280 ****       124.0000 131.5000 164.5000 Du        
  10281 ****       124.0000 131.7500 162.2500 Du        
  10282 ****       124.0000 131.7500 162.5000 Du        
  10283 ****       124.0000 131.7500 162.7500 Du        
  10284 ****       124.0000 131.7500 163.0000 Du        
  10285 ****       124.0000 131.7500 163.2500 Du        
  10286 ****       124.0000 131.7500 163.5000 Du        
  10287 ****       124.0000 131.7500 163.7500 Du        
  10288 ****       124.0000 131.7500 164.0000 Du        
  10289 ****       124.0000 131.7500 164.2500 Du        
  10290 ****       124.0000 131.7500 164.5000 Du        
  10291 ****       124.0000 131.7500 164.7500 Du        
  10292 ****       124.0000 132.0000 162.2500 Du        
  10293 ****       124.0000 132.0000 162.5000 Du        
  10294 ****       124.0000 132.0000 162.7500 Du        
  10295 ****       124.0000 132.0000 163.0000 Du        
  10296 ****       124.0000 132.0000 163.2500 Du        
  10297 ****       124.0000 132.0000 163.5000 Du        
  10298 ****       124.0000 132.0000 163.7500 Du        
  10299 ****       124.0000 132.0000 164.0000 Du        
  10300 ****       124.0000 132.0000 164.2500 Du        
  10301 ****       124.0000 132.0000 164.5000 Du        
  10302 ****       124.0000 132.0000 164.7500 Du        
  10303 ****       124.0000 132.0000 165.0000 Du        
  10304 ****       124.0000 132.0000 165.2500 Du        
  10305 ****       124.0000 132.2500 162.0000 Du        
  10306 ****       124.0000 132.2500 162.2500 Du        
  10307 ****       124.0000 132.2500 162.5000 Du        
  10308 ****       124.0000 132.2500 162.7500 Du        
  10309 ****       124.0000 132.2500 163.0000 Du        
  10310 ****       124.0000 132.2500 163.2500 Du        
  10311 ****       124.0000 132.2500 163.5000 Du        
  10312 ****       124.0000 132.2500 163.7500 Du        
  10313 ****       124.0000 132.2500 164.0000 Du        
  10314 ****       124.0000 132.2500 164.2500 Du        
  10315 ****       124.0000 132.2500 164.5000 Du        
  10316 ****       124.0000 132.2500 164.7500 Du        
  10317 ****       124.0000 132.2500 165.0000 Du        
  10318 ****       124.0000 132.2500 165.2500 Du        
  10319 ****       124.0000 132.2500 165.5000 Du        
  10320 ****       124.0000 132.5000 163.7500 Du        
  10321 ****       124.0000 132.5000 164.0000 Du        
  10322 ****       124.0000 132.5000 164.2500 Du        
  10323 ****       124.0000 132.5000 164.5000 Du        
  10324 ****       124.0000 132.5000 164.7500 Du        
  10325 ****       124.0000 132.5000 165.0000 Du        
  10326 ****       124.0000 132.5000 165.2500 Du        
  10327 ****       124.0000 132.5000 165.5000 Du        
  10328 ****       124.0000 132.5000 165.7500 Du        
  10329 ****       124.0000 132.7500 164.5000 Du        
  10330 ****       124.0000 132.7500 164.7500 Du        
  10331 ****       124.0000 132.7500 165.0000 Du        
  10332 ****       124.0000 132.7500 165.2500 Du        
  10333 ****       124.0000 132.7500 165.5000 Du        
  10334 ****       124.0000 132.7500 165.7500 Du        
  10335 ****       124.0000 132.7500 166.0000 Du        
  10336 ****       124.0000 133.0000 165.0000 Du        
  10337 ****       124.0000 133.0000 165.2500 Du        
  10338 ****       124.0000 133.0000 165.5000 Du        
  10339 ****       124.0000 133.0000 165.7500 Du        
  10340 ****       124.0000 133.0000 166.0000 Du        
  10341 ****       124.0000 133.2500 165.2500 Du        
  10342 ****       124.0000 133.2500 165.5000 Du        
  10343 ****       124.0000 133.2500 165.7500 Du        
  10344 ****       124.0000 133.2500 166.0000 Du        
  10345 ****       124.0000 133.5000 140.7500 Du        
  10346 ****       124.0000 133.5000 141.0000 Du        
  10347 ****       124.0000 133.5000 141.2500 Du        
  10348 ****       124.0000 133.5000 165.5000 Du        
  10349 ****       124.0000 133.5000 165.7500 Du        
  10350 ****       124.0000 133.5000 166.0000 Du        
  10351 ****       124.0000 133.7500 140.2500 Du        
  10352 ****       124.0000 133.7500 140.5000 Du        
  10353 ****       124.0000 133.7500 140.7500 Du        
  10354 ****       124.0000 133.7500 141.0000 Du        
  10355 ****       124.0000 133.7500 141.2500 Du        
  10356 ****       124.0000 133.7500 165.7500 Du        
  10357 ****       124.0000 134.0000 139.7500 Du        
  10358 ****       124.0000 134.0000 140.0000 Du        
  10359 ****       124.0000 134.0000 140.2500 Du        
  10360 ****       124.0000 134.0000 140.5000 Du        
  10361 ****       124.0000 134.0000 140.7500 Du        
  10362 ****       124.0000 134.0000 141.0000 Du        
  10363 ****       124.0000 134.0000 141.2500 Du        
  10364 ****       124.0000 134.2500 139.7500 Du        
  10365 ****       124.0000 134.2500 140.0000 Du        
  10366 ****       124.0000 134.2500 140.2500 Du        
  10367 ****       124.0000 134.2500 140.5000 Du        
  10368 ****       124.0000 134.2500 140.7500 Du        
  10369 ****       124.0000 134.2500 141.0000 Du        
  10370 ****       124.0000 134.2500 141.2500 Du        
  10371 ****       124.0000 134.5000 139.5000 Du        
  10372 ****       124.0000 134.5000 139.7500 Du        
  10373 ****       124.0000 134.5000 140.0000 Du        
  10374 ****       124.0000 134.5000 140.2500 Du        
  10375 ****       124.0000 134.5000 140.5000 Du        
  10376 ****       124.0000 134.5000 140.7500 Du        
  10377 ****       124.0000 134.5000 141.0000 Du        
  10378 ****       124.0000 134.5000 141.2500 Du        
  10379 ****       124.0000 134.7500 139.2500 Du        
  10380 ****       124.0000 134.7500 139.5000 Du        
  10381 ****       124.0000 134.7500 139.7500 Du        
  10382 ****       124.0000 134.7500 140.0000 Du        
  10383 ****       124.0000 134.7500 140.2500 Du        
  10384 ****       124.0000 134.7500 140.5000 Du        
  10385 ****       124.0000 134.7500 140.7500 Du        
  10386 ****       124.0000 134.7500 141.0000 Du        
  10387 ****       124.0000 134.7500 141.2500 Du        
  10388 ****       124.0000 135.0000 139.2500 Du        
  10389 ****       124.0000 135.0000 139.5000 Du        
  10390 ****       124.0000 135.0000 139.7500 Du        
  10391 ****       124.0000 135.0000 140.0000 Du        
  10392 ****       124.0000 135.0000 140.2500 Du        
  10393 ****       124.0000 135.0000 140.5000 Du        
  10394 ****       124.0000 135.0000 140.7500 Du        
  10395 ****       124.0000 135.0000 141.0000 Du        
  10396 ****       124.0000 135.2500 139.2500 Du        
  10397 ****       124.0000 135.2500 139.5000 Du        
  10398 ****       124.0000 135.2500 139.7500 Du        
  10399 ****       124.0000 135.2500 140.0000 Du        
  10400 ****       124.0000 135.2500 140.2500 Du        
  10401 ****       124.0000 135.2500 140.5000 Du        
  10402 ****       124.0000 135.2500 140.7500 Du        
  10403 ****       124.0000 135.2500 155.7500 Du        
  10404 ****       124.0000 135.2500 156.0000 Du        
  10405 ****       124.0000 135.2500 156.2500 Du        
  10406 ****       124.0000 135.5000 139.2500 Du        
  10407 ****       124.0000 135.5000 139.5000 Du        
  10408 ****       124.0000 135.5000 139.7500 Du        
  10409 ****       124.0000 135.5000 140.0000 Du        
  10410 ****       124.0000 135.5000 140.2500 Du        
  10411 ****       124.0000 135.5000 140.5000 Du        
  10412 ****       124.0000 135.5000 155.2500 Du        
  10413 ****       124.0000 135.5000 155.5000 Du        
  10414 ****       124.0000 135.5000 155.7500 Du        
  10415 ****       124.0000 135.5000 156.0000 Du        
  10416 ****       124.0000 135.5000 156.2500 Du        
  10417 ****       124.0000 135.5000 156.5000 Du        
  10418 ****       124.0000 135.7500 139.7500 Du        
  10419 ****       124.0000 135.7500 140.0000 Du        
  10420 ****       124.0000 135.7500 140.2500 Du        
  10421 ****       124.0000 135.7500 155.0000 Du        
  10422 ****       124.0000 135.7500 155.2500 Du        
  10423 ****       124.0000 135.7500 155.5000 Du        
  10424 ****       124.0000 135.7500 155.7500 Du        
  10425 ****       124.0000 135.7500 156.0000 Du        
  10426 ****       124.0000 136.0000 154.7500 Du        
  10427 ****       124.0000 136.0000 155.0000 Du        
  10428 ****       124.0000 136.0000 155.2500 Du        
  10429 ****       124.0000 136.0000 155.5000 Du        
  10430 ****       124.0000 136.0000 155.7500 Du        
  10431 ****       124.0000 136.2500 155.0000 Du        
  10432 ****       124.0000 136.2500 155.2500 Du        
  10433 ****       124.0000 136.2500 155.5000 Du        
  10434 ****       124.0000 136.5000 155.0000 Du        
  10435 ****       124.0000 136.5000 155.2500 Du        
  10436 ****       124.0000 138.0000  93.2500 Du        
  10437 ****       124.0000 138.0000  93.5000 Du        
  10438 ****       124.0000 138.0000  93.7500 Du        
  10439 ****       124.0000 138.0000  94.0000 Du        
  10440 ****       124.0000 138.0000  94.2500 Du        
  10441 ****       124.0000 138.0000  94.5000 Du        
  10442 ****       124.0000 138.0000  94.7500 Du        
  10443 ****       124.0000 138.0000  95.0000 Du        
  10444 ****       124.0000 138.0000  95.2500 Du        
  10445 ****       124.0000 138.0000  95.5000 Du        
  10446 ****       124.0000 138.0000  95.7500 Du        
  10447 ****       124.0000 138.0000  96.0000 Du        
  10448 ****       124.0000 138.0000  96.2500 Du        
  10449 ****       124.0000 138.0000  96.5000 Du        
  10450 ****       124.0000 138.2500  93.2500 Du        
  10451 ****       124.0000 138.2500  93.5000 Du        
  10452 ****       124.0000 138.2500  93.7500 Du        
  10453 ****       124.0000 138.2500  94.0000 Du        
  10454 ****       124.0000 138.2500  94.2500 Du        
  10455 ****       124.0000 138.2500  94.5000 Du        
  10456 ****       124.0000 138.2500  94.7500 Du        
  10457 ****       124.0000 138.2500  95.0000 Du        
  10458 ****       124.0000 138.2500  95.2500 Du        
  10459 ****       124.0000 138.2500  95.5000 Du        
  10460 ****       124.0000 138.2500  95.7500 Du        
  10461 ****       124.0000 138.2500  96.0000 Du        
  10462 ****       124.0000 138.2500  96.2500 Du        
  10463 ****       124.0000 138.2500  96.5000 Du        
  10464 ****       124.0000 138.2500  96.7500 Du        
  10465 ****       124.0000 138.5000  93.2500 Du        
  10466 ****       124.0000 138.5000  93.5000 Du        
  10467 ****       124.0000 138.5000  93.7500 Du        
  10468 ****       124.0000 138.5000  94.0000 Du        
  10469 ****       124.0000 138.5000  94.2500 Du        
  10470 ****       124.0000 138.5000  94.5000 Du        
  10471 ****       124.0000 138.5000  94.7500 Du        
  10472 ****       124.0000 138.5000  95.0000 Du        
  10473 ****       124.0000 138.5000  95.2500 Du        
  10474 ****       124.0000 138.5000  95.5000 Du        
  10475 ****       124.0000 138.5000  95.7500 Du        
  10476 ****       124.0000 138.5000  96.0000 Du        
  10477 ****       124.0000 138.5000  96.2500 Du        
  10478 ****       124.0000 138.5000  96.5000 Du        
  10479 ****       124.0000 138.5000  96.7500 Du        
  10480 ****       124.0000 138.7500  93.2500 Du        
  10481 ****       124.0000 138.7500  93.5000 Du        
  10482 ****       124.0000 138.7500  93.7500 Du        
  10483 ****       124.0000 138.7500  94.0000 Du        
  10484 ****       124.0000 138.7500  94.2500 Du        
  10485 ****       124.0000 138.7500  94.5000 Du        
  10486 ****       124.0000 138.7500  94.7500 Du        
  10487 ****       124.0000 138.7500  95.0000 Du        
  10488 ****       124.0000 138.7500  95.2500 Du        
  10489 ****       124.0000 138.7500  95.5000 Du        
  10490 ****       124.0000 138.7500  95.7500 Du        
  10491 ****       124.0000 138.7500  96.0000 Du        
  10492 ****       124.0000 138.7500  96.2500 Du        
  10493 ****       124.0000 138.7500  96.5000 Du        
  10494 ****       124.0000 138.7500  96.7500 Du        
  10495 ****       124.0000 138.7500  97.0000 Du        
  10496 ****       124.0000 139.0000  94.0000 Du        
  10497 ****       124.0000 139.0000  94.2500 Du        
  10498 ****       124.0000 139.0000  94.5000 Du        
  10499 ****       124.0000 139.0000  94.7500 Du        
  10500 ****       124.0000 139.0000  95.0000 Du        
  10501 ****       124.0000 139.0000  95.2500 Du        
  10502 ****       124.0000 139.0000  95.5000 Du        
  10503 ****       124.0000 139.0000  95.7500 Du        
  10504 ****       124.0000 139.0000  96.0000 Du        
  10505 ****       124.0000 139.0000  96.2500 Du        
  10506 ****       124.0000 139.0000  96.5000 Du        
  10507 ****       124.0000 139.0000  96.7500 Du        
  10508 ****       124.0000 139.0000  97.0000 Du        
  10509 ****       124.0000 139.2500  86.0000 Du        
  10510 ****       124.0000 139.2500  86.2500 Du        
  10511 ****       124.0000 139.2500  86.5000 Du        
  10512 ****       124.0000 139.2500  94.5000 Du        
  10513 ****       124.0000 139.2500  94.7500 Du        
  10514 ****       124.0000 139.2500  95.0000 Du        
  10515 ****       124.0000 139.2500  95.2500 Du        
  10516 ****       124.0000 139.2500  95.5000 Du        
  10517 ****       124.0000 139.2500  95.7500 Du        
  10518 ****       124.0000 139.2500  96.0000 Du        
  10519 ****       124.0000 139.2500  96.2500 Du        
  10520 ****       124.0000 139.2500  96.5000 Du        
  10521 ****       124.0000 139.2500  96.7500 Du        
  10522 ****       124.0000 139.2500  97.0000 Du        
  10523 ****       124.0000 139.5000  86.0000 Du        
  10524 ****       124.0000 139.5000  86.2500 Du        
  10525 ****       124.0000 139.5000  95.0000 Du        
  10526 ****       124.0000 139.5000  95.2500 Du        
  10527 ****       124.0000 139.5000  95.5000 Du        
  10528 ****       124.0000 139.5000  95.7500 Du        
  10529 ****       124.0000 139.5000  96.0000 Du        
  10530 ****       124.0000 139.5000  96.2500 Du        
  10531 ****       124.0000 139.5000  96.5000 Du        
  10532 ****       124.0000 139.5000  96.7500 Du        
  10533 ****       124.0000 139.5000  97.0000 Du        
  10534 ****       124.0000 139.7500  85.7500 Du        
  10535 ****       124.0000 139.7500  86.0000 Du        
  10536 ****       124.0000 139.7500  86.2500 Du        
  10537 ****       124.0000 139.7500  86.5000 Du        
  10538 ****       124.0000 139.7500  95.5000 Du        
  10539 ****       124.0000 139.7500  95.7500 Du        
  10540 ****       124.0000 139.7500  96.0000 Du        
  10541 ****       124.0000 139.7500  96.2500 Du        
  10542 ****       124.0000 139.7500  96.5000 Du        
  10543 ****       124.0000 139.7500  96.7500 Du        
  10544 ****       124.0000 139.7500  97.0000 Du        
  10545 ****       124.0000 139.7500  97.2500 Du        
  10546 ****       124.0000 140.0000  86.0000 Du        
  10547 ****       124.0000 140.0000  86.2500 Du        
  10548 ****       124.0000 140.0000  95.7500 Du        
  10549 ****       124.0000 140.0000  96.0000 Du        
  10550 ****       124.0000 140.0000  96.2500 Du        
  10551 ****       124.0000 140.0000  96.5000 Du        
  10552 ****       124.0000 140.0000  96.7500 Du        
  10553 ****       124.0000 140.0000  97.0000 Du        
  10554 ****       124.0000 140.0000  97.2500 Du        
  10555 ****       124.0000 140.2500  86.2500 Du        
  10556 ****       124.0000 140.2500  96.0000 Du        
  10557 ****       124.0000 140.2500  96.2500 Du        
  10558 ****       124.0000 140.2500  96.5000 Du        
  10559 ****       124.0000 140.2500  96.7500 Du        
  10560 ****       124.0000 140.2500  97.0000 Du        
  10561 ****       124.0000 140.2500  97.2500 Du        
  10562 ****       124.0000 140.5000  96.2500 Du        
  10563 ****       124.0000 140.5000  96.5000 Du        
  10564 ****       124.0000 140.5000  96.7500 Du        
  10565 ****       124.0000 140.5000  97.0000 Du        
  10566 ****       124.0000 140.5000  97.2500 Du        
  10567 ****       124.0000 140.7500  96.2500 Du        
  10568 ****       124.0000 140.7500  96.5000 Du        
  10569 ****       124.0000 140.7500  96.7500 Du        
  10570 ****       124.0000 140.7500  97.0000 Du        
  10571 ****       124.0000 140.7500  97.2500 Du        
  10572 ****       124.0000 141.0000  96.5000 Du        
  10573 ****       124.0000 141.0000  96.7500 Du        
  10574 ****       124.0000 141.0000  97.0000 Du        
  10575 ****       124.0000 141.0000  97.2500 Du        
  10576 ****       124.0000 141.2500  96.7500 Du        
  10577 ****       124.0000 141.2500  97.0000 Du        
  10578 ****       124.0000 141.2500  97.2500 Du        
  10579 ****       124.0000 141.5000  97.0000 Du        
  10580 ****       124.0000 141.5000  97.2500 Du        
  10581 ****       124.0000 141.7500 151.0000 Du        
  10582 ****       124.0000 141.7500 151.2500 Du        
  10583 ****       124.0000 141.7500 151.5000 Du        
  10584 ****       124.0000 142.0000 150.7500 Du        
  10585 ****       124.0000 142.0000 151.0000 Du        
  10586 ****       124.0000 142.0000 151.2500 Du        
  10587 ****       124.0000 142.0000 151.5000 Du        
  10588 ****       124.0000 142.0000 151.7500 Du        
  10589 ****       124.0000 142.2500 150.7500 Du        
  10590 ****       124.0000 142.2500 151.0000 Du        
  10591 ****       124.0000 142.2500 151.2500 Du        
  10592 ****       124.0000 142.2500 151.5000 Du        
  10593 ****       124.0000 142.2500 151.7500 Du        
  10594 ****       124.0000 142.2500 152.0000 Du        
  10595 ****       124.0000 142.5000 150.7500 Du        
  10596 ****       124.0000 142.5000 151.0000 Du        
  10597 ****       124.0000 142.5000 151.2500 Du        
  10598 ****       124.0000 142.5000 151.5000 Du        
  10599 ****       124.0000 142.5000 151.7500 Du        
  10600 ****       124.0000 142.5000 152.0000 Du        
  10601 ****       124.0000 142.7500 150.7500 Du        
  10602 ****       124.0000 142.7500 151.0000 Du        
  10603 ****       124.0000 142.7500 151.2500 Du        
  10604 ****       124.0000 142.7500 151.5000 Du        
  10605 ****       124.0000 142.7500 151.7500 Du        
  10606 ****       124.0000 142.7500 152.0000 Du        
  10607 ****       124.0000 144.7500 118.7500 Du        
  10608 ****       124.0000 144.7500 119.0000 Du        
  10609 ****       124.0000 144.7500 130.5000 Du        
  10610 ****       124.0000 144.7500 130.7500 Du        
  10611 ****       124.0000 144.7500 131.0000 Du        
  10612 ****       124.0000 145.0000 118.2500 Du        
  10613 ****       124.0000 145.0000 118.5000 Du        
  10614 ****       124.0000 145.0000 118.7500 Du        
  10615 ****       124.0000 145.0000 119.0000 Du        
  10616 ****       124.0000 145.0000 119.2500 Du        
  10617 ****       124.0000 145.0000 119.5000 Du        
  10618 ****       124.0000 145.0000 130.2500 Du        
  10619 ****       124.0000 145.0000 130.5000 Du        
  10620 ****       124.0000 145.0000 130.7500 Du        
  10621 ****       124.0000 145.0000 131.0000 Du        
  10622 ****       124.0000 145.0000 131.2500 Du        
  10623 ****       124.0000 145.0000 131.5000 Du        
  10624 ****       124.0000 145.0000 131.7500 Du        
  10625 ****       124.0000 145.0000 132.0000 Du        
  10626 ****       124.0000 145.0000 132.2500 Du        
  10627 ****       124.0000 145.2500 118.0000 Du        
  10628 ****       124.0000 145.2500 118.2500 Du        
  10629 ****       124.0000 145.2500 118.5000 Du        
  10630 ****       124.0000 145.2500 118.7500 Du        
  10631 ****       124.0000 145.2500 119.0000 Du        
  10632 ****       124.0000 145.2500 119.2500 Du        
  10633 ****       124.0000 145.2500 119.5000 Du        
  10634 ****       124.0000 145.2500 119.7500 Du        
  10635 ****       124.0000 145.2500 120.0000 Du        
  10636 ****       124.0000 145.2500 130.0000 Du        
  10637 ****       124.0000 145.2500 130.2500 Du        
  10638 ****       124.0000 145.2500 130.5000 Du        
  10639 ****       124.0000 145.2500 130.7500 Du        
  10640 ****       124.0000 145.2500 131.0000 Du        
  10641 ****       124.0000 145.2500 131.2500 Du        
  10642 ****       124.0000 145.2500 131.5000 Du        
  10643 ****       124.0000 145.2500 131.7500 Du        
  10644 ****       124.0000 145.2500 132.0000 Du        
  10645 ****       124.0000 145.2500 132.2500 Du        
  10646 ****       124.0000 145.2500 132.5000 Du        
  10647 ****       124.0000 145.5000 118.0000 Du        
  10648 ****       124.0000 145.5000 118.2500 Du        
  10649 ****       124.0000 145.5000 118.5000 Du        
  10650 ****       124.0000 145.5000 118.7500 Du        
  10651 ****       124.0000 145.5000 119.0000 Du        
  10652 ****       124.0000 145.5000 119.2500 Du        
  10653 ****       124.0000 145.5000 130.0000 Du        
  10654 ****       124.0000 145.5000 130.2500 Du        
  10655 ****       124.0000 145.5000 130.5000 Du        
  10656 ****       124.0000 145.5000 130.7500 Du        
  10657 ****       124.0000 145.5000 131.0000 Du        
  10658 ****       124.0000 145.5000 131.2500 Du        
  10659 ****       124.0000 145.5000 131.5000 Du        
  10660 ****       124.0000 145.5000 131.7500 Du        
  10661 ****       124.0000 145.5000 132.0000 Du        
  10662 ****       124.0000 145.5000 132.2500 Du        
  10663 ****       124.0000 145.5000 132.5000 Du        
  10664 ****       124.0000 145.5000 132.7500 Du        
  10665 ****       124.0000 145.7500 117.7500 Du        
  10666 ****       124.0000 145.7500 118.0000 Du        
  10667 ****       124.0000 145.7500 118.2500 Du        
  10668 ****       124.0000 145.7500 118.5000 Du        
  10669 ****       124.0000 145.7500 118.7500 Du        
  10670 ****       124.0000 145.7500 119.0000 Du        
  10671 ****       124.0000 145.7500 119.2500 Du        
  10672 ****       124.0000 145.7500 130.0000 Du        
  10673 ****       124.0000 145.7500 130.2500 Du        
  10674 ****       124.0000 145.7500 130.5000 Du        
  10675 ****       124.0000 145.7500 130.7500 Du        
  10676 ****       124.0000 145.7500 131.0000 Du        
  10677 ****       124.0000 145.7500 131.2500 Du        
  10678 ****       124.0000 145.7500 131.5000 Du        
  10679 ****       124.0000 145.7500 131.7500 Du        
  10680 ****       124.0000 145.7500 132.0000 Du        
  10681 ****       124.0000 145.7500 132.2500 Du        
  10682 ****       124.0000 145.7500 132.5000 Du        
  10683 ****       124.0000 145.7500 132.7500 Du        
  10684 ****       124.0000 145.7500 133.0000 Du        
  10685 ****       124.0000 146.0000 117.5000 Du        
  10686 ****       124.0000 146.0000 117.7500 Du        
  10687 ****       124.0000 146.0000 118.0000 Du        
  10688 ****       124.0000 146.0000 118.2500 Du        
  10689 ****       124.0000 146.0000 118.5000 Du        
  10690 ****       124.0000 146.0000 118.7500 Du        
  10691 ****       124.0000 146.0000 119.0000 Du        
  10692 ****       124.0000 146.0000 119.2500 Du        
  10693 ****       124.0000 146.0000 130.5000 Du        
  10694 ****       124.0000 146.0000 130.7500 Du        
  10695 ****       124.0000 146.0000 131.0000 Du        
  10696 ****       124.0000 146.0000 131.2500 Du        
  10697 ****       124.0000 146.0000 131.5000 Du        
  10698 ****       124.0000 146.0000 131.7500 Du        
  10699 ****       124.0000 146.0000 132.0000 Du        
  10700 ****       124.0000 146.0000 132.2500 Du        
  10701 ****       124.0000 146.0000 132.5000 Du        
  10702 ****       124.0000 146.0000 132.7500 Du        
  10703 ****       124.0000 146.0000 133.0000 Du        
  10704 ****       124.0000 146.0000 133.2500 Du        
  10705 ****       124.0000 146.2500 117.5000 Du        
  10706 ****       124.0000 146.2500 117.7500 Du        
  10707 ****       124.0000 146.2500 118.0000 Du        
  10708 ****       124.0000 146.2500 118.2500 Du        
  10709 ****       124.0000 146.2500 118.5000 Du        
  10710 ****       124.0000 146.2500 118.7500 Du        
  10711 ****       124.0000 146.2500 119.0000 Du        
  10712 ****       124.0000 146.2500 130.7500 Du        
  10713 ****       124.0000 146.2500 131.2500 Du        
  10714 ****       124.0000 146.2500 131.5000 Du        
  10715 ****       124.0000 146.2500 131.7500 Du        
  10716 ****       124.0000 146.2500 132.0000 Du        
  10717 ****       124.0000 146.2500 132.2500 Du        
  10718 ****       124.0000 146.2500 132.5000 Du        
  10719 ****       124.0000 146.2500 132.7500 Du        
  10720 ****       124.0000 146.2500 133.0000 Du        
  10721 ****       124.0000 146.2500 133.2500 Du        
  10722 ****       124.0000 146.2500 133.5000 Du        
  10723 ****       124.0000 146.5000 117.7500 Du        
  10724 ****       124.0000 146.5000 118.0000 Du        
  10725 ****       124.0000 146.5000 118.2500 Du        
  10726 ****       124.0000 146.7500 118.0000 Du        
  10727 ****       124.0000 146.7500 118.2500 Du        
  10728 ****       124.0000 153.0000 155.2500 Du        
  10729 ****       124.0000 153.0000 155.5000 Du        
  10730 ****       124.0000 153.0000 155.7500 Du        
  10731 ****       124.0000 153.0000 156.0000 Du        
  10732 ****       124.0000 153.2500 155.2500 Du        
  10733 ****       124.0000 153.2500 155.5000 Du        
  10734 ****       124.0000 153.2500 155.7500 Du        
  10735 ****       124.0000 153.2500 156.0000 Du        
  10736 ****       124.0000 153.2500 156.2500 Du        
  10737 ****       124.0000 153.2500 156.5000 Du        
  10738 ****       124.0000 153.2500 156.7500 Du        
  10739 ****       124.0000 153.2500 157.0000 Du        
  10740 ****       124.0000 153.2500 157.2500 Du        
  10741 ****       124.0000 153.2500 157.5000 Du        
  10742 ****       124.0000 153.2500 157.7500 Du        
  10743 ****       124.0000 153.2500 158.0000 Du        
  10744 ****       124.0000 153.5000 155.5000 Du        
  10745 ****       124.0000 153.5000 155.7500 Du        
  10746 ****       124.0000 153.5000 156.0000 Du        
  10747 ****       124.0000 153.5000 156.2500 Du        
  10748 ****       124.0000 153.5000 156.5000 Du        
  10749 ****       124.0000 153.5000 156.7500 Du        
  10750 ****       124.0000 153.5000 157.0000 Du        
  10751 ****       124.0000 153.5000 157.2500 Du        
  10752 ****       124.0000 153.5000 157.5000 Du        
  10753 ****       124.0000 153.5000 157.7500 Du        
  10754 ****       124.0000 153.5000 158.0000 Du        
  10755 ****       124.0000 153.7500 156.0000 Du        
  10756 ****       124.0000 153.7500 156.2500 Du        
  10757 ****       124.0000 153.7500 156.5000 Du        
  10758 ****       124.0000 153.7500 156.7500 Du        
  10759 ****       124.0000 153.7500 157.0000 Du        
  10760 ****       124.0000 153.7500 157.2500 Du        
  10761 ****       124.0000 153.7500 157.5000 Du        
  10762 ****       124.0000 153.7500 157.7500 Du        
  10763 ****       124.0000 153.7500 158.0000 Du        
  10764 ****       124.0000 154.0000 156.2500 Du        
  10765 ****       124.0000 154.0000 156.5000 Du        
  10766 ****       124.0000 154.0000 156.7500 Du        
  10767 ****       124.0000 154.0000 157.0000 Du        
  10768 ****       124.0000 154.0000 157.2500 Du        
  10769 ****       124.0000 154.0000 157.5000 Du        
  10770 ****       124.0000 154.0000 157.7500 Du        
  10771 ****       124.0000 154.0000 158.0000 Du        
  10772 ****       124.0000 154.2500 156.5000 Du        
  10773 ****       124.0000 154.2500 156.7500 Du        
  10774 ****       124.0000 154.2500 157.0000 Du        
  10775 ****       124.0000 154.2500 157.2500 Du        
  10776 ****       124.0000 154.2500 157.5000 Du        
  10777 ****       124.0000 154.2500 157.7500 Du        
  10778 ****       124.0000 154.2500 158.0000 Du        
  10779 ****       124.0000 154.5000 156.7500 Du        
  10780 ****       124.0000 154.5000 157.0000 Du        
  10781 ****       124.0000 154.5000 157.2500 Du        
  10782 ****       124.0000 154.5000 157.5000 Du        
  10783 ****       124.0000 154.5000 157.7500 Du        
  10784 ****       124.0000 154.5000 158.0000 Du        
  10785 ****       124.0000 154.7500 156.7500 Du        
  10786 ****       124.0000 154.7500 157.0000 Du        
  10787 ****       124.0000 154.7500 157.2500 Du        
  10788 ****       124.0000 154.7500 157.5000 Du        
  10789 ****       124.0000 154.7500 157.7500 Du        
  10790 ****       124.0000 154.7500 158.0000 Du        
  10791 ****       124.0000 155.0000 157.0000 Du        
  10792 ****       124.0000 155.0000 157.2500 Du        
  10793 ****       124.0000 155.0000 157.5000 Du        
  10794 ****       124.0000 161.2500 156.0000 Du        
  10795 ****       124.0000 161.7500 156.0000 Du        
  10796 ****       124.0000 162.0000 156.0000 Du        
  10797 ****       124.2500 122.7500 121.7500 Du        
  10798 ****       124.2500 122.7500 122.0000 Du        
  10799 ****       124.2500 123.0000 117.0000 Du        
  10800 ****       124.2500 123.0000 117.2500 Du        
  10801 ****       124.2500 123.0000 121.2500 Du        
  10802 ****       124.2500 123.0000 121.5000 Du        
  10803 ****       124.2500 123.0000 121.7500 Du        
  10804 ****       124.2500 123.0000 122.0000 Du        
  10805 ****       124.2500 123.2500 117.0000 Du        
  10806 ****       124.2500 123.2500 117.2500 Du        
  10807 ****       124.2500 123.2500 117.5000 Du        
  10808 ****       124.2500 123.2500 117.7500 Du        
  10809 ****       124.2500 123.2500 120.7500 Du        
  10810 ****       124.2500 123.2500 121.0000 Du        
  10811 ****       124.2500 123.2500 121.2500 Du        
  10812 ****       124.2500 123.2500 121.5000 Du        
  10813 ****       124.2500 123.5000 117.5000 Du        
  10814 ****       124.2500 123.5000 117.7500 Du        
  10815 ****       124.2500 123.5000 118.0000 Du        
  10816 ****       124.2500 123.5000 118.2500 Du        
  10817 ****       124.2500 123.5000 118.5000 Du        
  10818 ****       124.2500 123.5000 118.7500 Du        
  10819 ****       124.2500 123.5000 120.0000 Du        
  10820 ****       124.2500 123.5000 120.2500 Du        
  10821 ****       124.2500 123.5000 120.5000 Du        
  10822 ****       124.2500 123.5000 120.7500 Du        
  10823 ****       124.2500 123.5000 121.0000 Du        
  10824 ****       124.2500 123.5000 121.2500 Du        
  10825 ****       124.2500 123.7500 118.0000 Du        
  10826 ****       124.2500 123.7500 118.2500 Du        
  10827 ****       124.2500 123.7500 118.5000 Du        
  10828 ****       124.2500 123.7500 118.7500 Du        
  10829 ****       124.2500 123.7500 119.0000 Du        
  10830 ****       124.2500 123.7500 119.2500 Du        
  10831 ****       124.2500 123.7500 119.5000 Du        
  10832 ****       124.2500 123.7500 119.7500 Du        
  10833 ****       124.2500 123.7500 120.0000 Du        
  10834 ****       124.2500 123.7500 120.2500 Du        
  10835 ****       124.2500 123.7500 120.5000 Du        
  10836 ****       124.2500 123.7500 120.7500 Du        
  10837 ****       124.2500 123.7500 121.0000 Du        
  10838 ****       124.2500 124.0000 118.5000 Du        
  10839 ****       124.2500 124.0000 118.7500 Du        
  10840 ****       124.2500 124.0000 119.0000 Du        
  10841 ****       124.2500 124.0000 119.2500 Du        
  10842 ****       124.2500 124.0000 119.5000 Du        
  10843 ****       124.2500 124.0000 119.7500 Du        
  10844 ****       124.2500 124.0000 120.0000 Du        
  10845 ****       124.2500 124.0000 120.2500 Du        
  10846 ****       124.2500 124.0000 120.5000 Du        
  10847 ****       124.2500 124.0000 120.7500 Du        
  10848 ****       124.2500 124.0000 121.0000 Du        
  10849 ****       124.2500 124.2500 119.0000 Du        
  10850 ****       124.2500 124.2500 119.2500 Du        
  10851 ****       124.2500 124.2500 119.5000 Du        
  10852 ****       124.2500 124.2500 119.7500 Du        
  10853 ****       124.2500 124.2500 120.0000 Du        
  10854 ****       124.2500 124.2500 120.2500 Du        
  10855 ****       124.2500 124.2500 120.5000 Du        
  10856 ****       124.2500 124.2500 120.7500 Du        
  10857 ****       124.2500 124.5000 119.7500 Du        
  10858 ****       124.2500 124.5000 120.0000 Du        
  10859 ****       124.2500 124.5000 120.2500 Du        
  10860 ****       124.2500 124.5000 120.5000 Du        
  10861 ****       124.2500 125.7500 102.0000 Du        
  10862 ****       124.2500 125.7500 102.2500 Du        
  10863 ****       124.2500 125.7500 102.5000 Du        
  10864 ****       124.2500 126.0000 101.0000 Du        
  10865 ****       124.2500 126.0000 101.2500 Du        
  10866 ****       124.2500 126.0000 101.7500 Du        
  10867 ****       124.2500 126.0000 102.0000 Du        
  10868 ****       124.2500 126.0000 102.2500 Du        
  10869 ****       124.2500 126.0000 102.5000 Du        
  10870 ****       124.2500 126.2500 100.0000 Du        
  10871 ****       124.2500 126.2500 100.2500 Du        
  10872 ****       124.2500 126.2500 100.5000 Du        
  10873 ****       124.2500 126.2500 100.7500 Du        
  10874 ****       124.2500 126.2500 101.0000 Du        
  10875 ****       124.2500 126.2500 101.2500 Du        
  10876 ****       124.2500 126.2500 101.5000 Du        
  10877 ****       124.2500 126.2500 101.7500 Du        
  10878 ****       124.2500 126.2500 102.0000 Du        
  10879 ****       124.2500 126.2500 102.2500 Du        
  10880 ****       124.2500 126.2500 102.5000 Du        
  10881 ****       124.2500 126.2500 102.7500 Du        
  10882 ****       124.2500 126.5000  99.2500 Du        
  10883 ****       124.2500 126.5000  99.5000 Du        
  10884 ****       124.2500 126.5000  99.7500 Du        
  10885 ****       124.2500 126.5000 100.0000 Du        
  10886 ****       124.2500 126.5000 100.2500 Du        
  10887 ****       124.2500 126.5000 100.5000 Du        
  10888 ****       124.2500 126.5000 100.7500 Du        
  10889 ****       124.2500 126.5000 101.0000 Du        
  10890 ****       124.2500 126.5000 101.2500 Du        
  10891 ****       124.2500 126.5000 101.5000 Du        
  10892 ****       124.2500 126.5000 101.7500 Du        
  10893 ****       124.2500 126.5000 102.0000 Du        
  10894 ****       124.2500 126.5000 102.2500 Du        
  10895 ****       124.2500 126.5000 102.5000 Du        
  10896 ****       124.2500 126.5000 102.7500 Du        
  10897 ****       124.2500 126.7500  99.2500 Du        
  10898 ****       124.2500 126.7500  99.5000 Du        
  10899 ****       124.2500 126.7500  99.7500 Du        
  10900 ****       124.2500 126.7500 100.0000 Du        
  10901 ****       124.2500 126.7500 100.2500 Du        
  10902 ****       124.2500 126.7500 100.5000 Du        
  10903 ****       124.2500 126.7500 102.0000 Du        
  10904 ****       124.2500 126.7500 102.2500 Du        
  10905 ****       124.2500 126.7500 102.5000 Du        
  10906 ****       124.2500 126.7500 102.7500 Du        
  10907 ****       124.2500 127.0000  99.2500 Du        
  10908 ****       124.2500 127.0000  99.5000 Du        
  10909 ****       124.2500 127.0000  99.7500 Du        
  10910 ****       124.2500 130.2500 163.0000 Du        
  10911 ****       124.2500 130.5000 162.5000 Du        
  10912 ****       124.2500 130.5000 162.7500 Du        
  10913 ****       124.2500 130.5000 163.0000 Du        
  10914 ****       124.2500 130.5000 163.2500 Du        
  10915 ****       124.2500 130.5000 163.5000 Du        
  10916 ****       124.2500 130.7500 162.5000 Du        
  10917 ****       124.2500 130.7500 162.7500 Du        
  10918 ****       124.2500 130.7500 163.0000 Du        
  10919 ****       124.2500 130.7500 163.2500 Du        
  10920 ****       124.2500 130.7500 163.5000 Du        
  10921 ****       124.2500 130.7500 163.7500 Du        
  10922 ****       124.2500 131.0000 162.5000 Du        
  10923 ****       124.2500 131.0000 162.7500 Du        
  10924 ****       124.2500 131.0000 163.0000 Du        
  10925 ****       124.2500 131.0000 163.2500 Du        
  10926 ****       124.2500 131.0000 163.5000 Du        
  10927 ****       124.2500 131.0000 163.7500 Du        
  10928 ****       124.2500 131.0000 164.0000 Du        
  10929 ****       124.2500 131.2500 162.5000 Du        
  10930 ****       124.2500 131.2500 162.7500 Du        
  10931 ****       124.2500 131.2500 163.0000 Du        
  10932 ****       124.2500 131.2500 163.2500 Du        
  10933 ****       124.2500 131.2500 163.5000 Du        
  10934 ****       124.2500 131.2500 163.7500 Du        
  10935 ****       124.2500 131.2500 164.0000 Du        
  10936 ****       124.2500 131.2500 164.2500 Du        
  10937 ****       124.2500 131.5000 162.5000 Du        
  10938 ****       124.2500 131.5000 162.7500 Du        
  10939 ****       124.2500 131.5000 163.0000 Du        
  10940 ****       124.2500 131.5000 163.2500 Du        
  10941 ****       124.2500 131.5000 163.5000 Du        
  10942 ****       124.2500 131.5000 163.7500 Du        
  10943 ****       124.2500 131.5000 164.0000 Du        
  10944 ****       124.2500 131.5000 164.2500 Du        
  10945 ****       124.2500 131.5000 164.5000 Du        
  10946 ****       124.2500 131.7500 162.2500 Du        
  10947 ****       124.2500 131.7500 162.5000 Du        
  10948 ****       124.2500 131.7500 162.7500 Du        
  10949 ****       124.2500 131.7500 163.0000 Du        
  10950 ****       124.2500 131.7500 163.2500 Du        
  10951 ****       124.2500 131.7500 163.5000 Du        
  10952 ****       124.2500 131.7500 163.7500 Du        
  10953 ****       124.2500 131.7500 164.0000 Du        
  10954 ****       124.2500 131.7500 164.2500 Du        
  10955 ****       124.2500 131.7500 164.5000 Du        
  10956 ****       124.2500 131.7500 164.7500 Du        
  10957 ****       124.2500 131.7500 165.0000 Du        
  10958 ****       124.2500 132.0000 162.0000 Du        
  10959 ****       124.2500 132.0000 162.2500 Du        
  10960 ****       124.2500 132.0000 162.5000 Du        
  10961 ****       124.2500 132.0000 162.7500 Du        
  10962 ****       124.2500 132.0000 163.0000 Du        
  10963 ****       124.2500 132.0000 163.2500 Du        
  10964 ****       124.2500 132.0000 163.5000 Du        
  10965 ****       124.2500 132.0000 163.7500 Du        
  10966 ****       124.2500 132.0000 164.0000 Du        
  10967 ****       124.2500 132.0000 164.2500 Du        
  10968 ****       124.2500 132.0000 164.5000 Du        
  10969 ****       124.2500 132.0000 164.7500 Du        
  10970 ****       124.2500 132.0000 165.0000 Du        
  10971 ****       124.2500 132.0000 165.2500 Du        
  10972 ****       124.2500 132.0000 165.5000 Du        
  10973 ****       124.2500 132.2500 162.2500 Du        
  10974 ****       124.2500 132.2500 162.5000 Du        
  10975 ****       124.2500 132.2500 162.7500 Du        
  10976 ****       124.2500 132.2500 163.0000 Du        
  10977 ****       124.2500 132.2500 163.2500 Du        
  10978 ****       124.2500 132.2500 163.5000 Du        
  10979 ****       124.2500 132.2500 163.7500 Du        
  10980 ****       124.2500 132.2500 164.0000 Du        
  10981 ****       124.2500 132.2500 164.2500 Du        
  10982 ****       124.2500 132.2500 164.5000 Du        
  10983 ****       124.2500 132.2500 164.7500 Du        
  10984 ****       124.2500 132.2500 165.0000 Du        
  10985 ****       124.2500 132.2500 165.2500 Du        
  10986 ****       124.2500 132.2500 165.5000 Du        
  10987 ****       124.2500 132.2500 165.7500 Du        
  10988 ****       124.2500 132.5000 163.5000 Du        
  10989 ****       124.2500 132.5000 163.7500 Du        
  10990 ****       124.2500 132.5000 164.0000 Du        
  10991 ****       124.2500 132.5000 164.2500 Du        
  10992 ****       124.2500 132.5000 164.5000 Du        
  10993 ****       124.2500 132.5000 164.7500 Du        
  10994 ****       124.2500 132.5000 165.0000 Du        
  10995 ****       124.2500 132.5000 165.2500 Du        
  10996 ****       124.2500 132.5000 165.5000 Du        
  10997 ****       124.2500 132.5000 165.7500 Du        
  10998 ****       124.2500 132.7500 164.0000 Du        
  10999 ****       124.2500 132.7500 164.2500 Du        
  11000 ****       124.2500 132.7500 164.5000 Du        
  11001 ****       124.2500 132.7500 164.7500 Du        
  11002 ****       124.2500 132.7500 165.0000 Du        
  11003 ****       124.2500 132.7500 165.2500 Du        
  11004 ****       124.2500 132.7500 165.5000 Du        
  11005 ****       124.2500 132.7500 165.7500 Du        
  11006 ****       124.2500 132.7500 166.0000 Du        
  11007 ****       124.2500 133.0000 164.5000 Du        
  11008 ****       124.2500 133.0000 164.7500 Du        
  11009 ****       124.2500 133.0000 165.0000 Du        
  11010 ****       124.2500 133.0000 165.2500 Du        
  11011 ****       124.2500 133.0000 165.5000 Du        
  11012 ****       124.2500 133.0000 165.7500 Du        
  11013 ****       124.2500 133.0000 166.0000 Du        
  11014 ****       124.2500 133.2500 135.2500 Du        
  11015 ****       124.2500 133.2500 165.0000 Du        
  11016 ****       124.2500 133.2500 165.2500 Du        
  11017 ****       124.2500 133.2500 165.5000 Du        
  11018 ****       124.2500 133.2500 165.7500 Du        
  11019 ****       124.2500 133.2500 166.0000 Du        
  11020 ****       124.2500 133.5000 140.7500 Du        
  11021 ****       124.2500 133.5000 141.0000 Du        
  11022 ****       124.2500 133.5000 141.2500 Du        
  11023 ****       124.2500 133.5000 165.2500 Du        
  11024 ****       124.2500 133.5000 165.5000 Du        
  11025 ****       124.2500 133.5000 165.7500 Du        
  11026 ****       124.2500 133.5000 166.0000 Du        
  11027 ****       124.2500 133.7500 140.2500 Du        
  11028 ****       124.2500 133.7500 140.5000 Du        
  11029 ****       124.2500 133.7500 140.7500 Du        
  11030 ****       124.2500 133.7500 141.0000 Du        
  11031 ****       124.2500 133.7500 141.2500 Du        
  11032 ****       124.2500 133.7500 165.5000 Du        
  11033 ****       124.2500 133.7500 165.7500 Du        
  11034 ****       124.2500 134.0000 140.0000 Du        
  11035 ****       124.2500 134.0000 140.2500 Du        
  11036 ****       124.2500 134.0000 140.5000 Du        
  11037 ****       124.2500 134.0000 140.7500 Du        
  11038 ****       124.2500 134.0000 141.0000 Du        
  11039 ****       124.2500 134.0000 141.2500 Du        
  11040 ****       124.2500 134.2500 140.0000 Du        
  11041 ****       124.2500 134.2500 140.2500 Du        
  11042 ****       124.2500 134.2500 140.5000 Du        
  11043 ****       124.2500 134.2500 140.7500 Du        
  11044 ****       124.2500 134.2500 141.0000 Du        
  11045 ****       124.2500 134.2500 141.2500 Du        
  11046 ****       124.2500 134.5000 140.0000 Du        
  11047 ****       124.2500 134.5000 140.2500 Du        
  11048 ****       124.2500 134.5000 140.5000 Du        
  11049 ****       124.2500 134.5000 140.7500 Du        
  11050 ****       124.2500 134.5000 141.0000 Du        
  11051 ****       124.2500 134.5000 141.2500 Du        
  11052 ****       124.2500 134.7500 139.7500 Du        
  11053 ****       124.2500 134.7500 140.0000 Du        
  11054 ****       124.2500 134.7500 140.2500 Du        
  11055 ****       124.2500 134.7500 140.5000 Du        
  11056 ****       124.2500 134.7500 140.7500 Du        
  11057 ****       124.2500 134.7500 141.0000 Du        
  11058 ****       124.2500 135.0000 139.7500 Du        
  11059 ****       124.2500 135.0000 140.0000 Du        
  11060 ****       124.2500 135.0000 140.2500 Du        
  11061 ****       124.2500 135.0000 140.5000 Du        
  11062 ****       124.2500 135.0000 140.7500 Du        
  11063 ****       124.2500 135.0000 156.0000 Du        
  11064 ****       124.2500 135.0000 156.2500 Du        
  11065 ****       124.2500 135.2500 139.7500 Du        
  11066 ****       124.2500 135.2500 140.0000 Du        
  11067 ****       124.2500 135.2500 140.2500 Du        
  11068 ****       124.2500 135.2500 140.5000 Du        
  11069 ****       124.2500 135.2500 155.5000 Du        
  11070 ****       124.2500 135.2500 155.7500 Du        
  11071 ****       124.2500 135.2500 156.0000 Du        
  11072 ****       124.2500 135.2500 156.2500 Du        
  11073 ****       124.2500 135.2500 156.5000 Du        
  11074 ****       124.2500 135.5000 139.7500 Du        
  11075 ****       124.2500 135.5000 140.0000 Du        
  11076 ****       124.2500 135.5000 140.2500 Du        
  11077 ****       124.2500 135.5000 155.2500 Du        
  11078 ****       124.2500 135.5000 155.5000 Du        
  11079 ****       124.2500 135.5000 155.7500 Du        
  11080 ****       124.2500 135.5000 156.0000 Du        
  11081 ****       124.2500 135.5000 156.2500 Du        
  11082 ****       124.2500 135.5000 156.5000 Du        
  11083 ****       124.2500 135.7500 139.7500 Du        
  11084 ****       124.2500 135.7500 140.0000 Du        
  11085 ****       124.2500 135.7500 155.0000 Du        
  11086 ****       124.2500 135.7500 155.2500 Du        
  11087 ****       124.2500 135.7500 155.5000 Du        
  11088 ****       124.2500 135.7500 155.7500 Du        
  11089 ****       124.2500 135.7500 156.0000 Du        
  11090 ****       124.2500 135.7500 156.2500 Du        
  11091 ****       124.2500 136.0000 155.0000 Du        
  11092 ****       124.2500 136.0000 155.2500 Du        
  11093 ****       124.2500 136.0000 155.5000 Du        
  11094 ****       124.2500 136.0000 155.7500 Du        
  11095 ****       124.2500 136.2500 155.2500 Du        
  11096 ****       124.2500 136.2500 155.5000 Du        
  11097 ****       124.2500 137.7500  94.2500 Du        
  11098 ****       124.2500 137.7500  94.5000 Du        
  11099 ****       124.2500 137.7500  94.7500 Du        
  11100 ****       124.2500 137.7500  95.0000 Du        
  11101 ****       124.2500 137.7500  95.2500 Du        
  11102 ****       124.2500 137.7500  95.5000 Du        
  11103 ****       124.2500 137.7500  95.7500 Du        
  11104 ****       124.2500 137.7500  96.0000 Du        
  11105 ****       124.2500 138.0000  93.2500 Du        
  11106 ****       124.2500 138.0000  93.5000 Du        
  11107 ****       124.2500 138.0000  93.7500 Du        
  11108 ****       124.2500 138.0000  94.0000 Du        
  11109 ****       124.2500 138.0000  94.2500 Du        
  11110 ****       124.2500 138.0000  94.5000 Du        
  11111 ****       124.2500 138.0000  94.7500 Du        
  11112 ****       124.2500 138.0000  95.0000 Du        
  11113 ****       124.2500 138.0000  95.2500 Du        
  11114 ****       124.2500 138.0000  95.5000 Du        
  11115 ****       124.2500 138.0000  95.7500 Du        
  11116 ****       124.2500 138.0000  96.0000 Du        
  11117 ****       124.2500 138.0000  96.2500 Du        
  11118 ****       124.2500 138.0000  96.5000 Du        
  11119 ****       124.2500 138.2500  93.0000 Du        
  11120 ****       124.2500 138.2500  93.2500 Du        
  11121 ****       124.2500 138.2500  93.5000 Du        
  11122 ****       124.2500 138.2500  93.7500 Du        
  11123 ****       124.2500 138.2500  94.0000 Du        
  11124 ****       124.2500 138.2500  94.2500 Du        
  11125 ****       124.2500 138.2500  94.5000 Du        
  11126 ****       124.2500 138.2500  94.7500 Du        
  11127 ****       124.2500 138.2500  95.0000 Du        
  11128 ****       124.2500 138.2500  95.2500 Du        
  11129 ****       124.2500 138.2500  95.5000 Du        
  11130 ****       124.2500 138.2500  95.7500 Du        
  11131 ****       124.2500 138.2500  96.0000 Du        
  11132 ****       124.2500 138.2500  96.2500 Du        
  11133 ****       124.2500 138.2500  96.5000 Du        
  11134 ****       124.2500 138.2500  96.7500 Du        
  11135 ****       124.2500 138.5000  93.0000 Du        
  11136 ****       124.2500 138.5000  93.2500 Du        
  11137 ****       124.2500 138.5000  93.5000 Du        
  11138 ****       124.2500 138.5000  93.7500 Du        
  11139 ****       124.2500 138.5000  94.0000 Du        
  11140 ****       124.2500 138.5000  94.2500 Du        
  11141 ****       124.2500 138.5000  94.5000 Du        
  11142 ****       124.2500 138.5000  94.7500 Du        
  11143 ****       124.2500 138.5000  95.0000 Du        
  11144 ****       124.2500 138.5000  95.2500 Du        
  11145 ****       124.2500 138.5000  95.5000 Du        
  11146 ****       124.2500 138.5000  95.7500 Du        
  11147 ****       124.2500 138.5000  96.0000 Du        
  11148 ****       124.2500 138.5000  96.2500 Du        
  11149 ****       124.2500 138.5000  96.5000 Du        
  11150 ****       124.2500 138.5000  96.7500 Du        
  11151 ****       124.2500 138.7500  93.0000 Du        
  11152 ****       124.2500 138.7500  93.2500 Du        
  11153 ****       124.2500 138.7500  93.5000 Du        
  11154 ****       124.2500 138.7500  93.7500 Du        
  11155 ****       124.2500 138.7500  94.0000 Du        
  11156 ****       124.2500 138.7500  94.2500 Du        
  11157 ****       124.2500 138.7500  94.5000 Du        
  11158 ****       124.2500 138.7500  94.7500 Du        
  11159 ****       124.2500 138.7500  95.0000 Du        
  11160 ****       124.2500 138.7500  95.2500 Du        
  11161 ****       124.2500 138.7500  95.5000 Du        
  11162 ****       124.2500 138.7500  95.7500 Du        
  11163 ****       124.2500 138.7500  96.0000 Du        
  11164 ****       124.2500 138.7500  96.2500 Du        
  11165 ****       124.2500 138.7500  96.5000 Du        
  11166 ****       124.2500 138.7500  96.7500 Du        
  11167 ****       124.2500 138.7500  97.0000 Du        
  11168 ****       124.2500 139.0000  86.2500 Du        
  11169 ****       124.2500 139.0000  86.5000 Du        
  11170 ****       124.2500 139.0000  93.7500 Du        
  11171 ****       124.2500 139.0000  94.0000 Du        
  11172 ****       124.2500 139.0000  94.2500 Du        
  11173 ****       124.2500 139.0000  94.5000 Du        
  11174 ****       124.2500 139.0000  94.7500 Du        
  11175 ****       124.2500 139.0000  95.0000 Du        
  11176 ****       124.2500 139.0000  95.2500 Du        
  11177 ****       124.2500 139.0000  95.5000 Du        
  11178 ****       124.2500 139.0000  95.7500 Du        
  11179 ****       124.2500 139.0000  96.0000 Du        
  11180 ****       124.2500 139.0000  96.2500 Du        
  11181 ****       124.2500 139.0000  96.5000 Du        
  11182 ****       124.2500 139.0000  96.7500 Du        
  11183 ****       124.2500 139.0000  97.0000 Du        
  11184 ****       124.2500 139.2500  86.0000 Du        
  11185 ****       124.2500 139.2500  86.2500 Du        
  11186 ****       124.2500 139.2500  86.5000 Du        
  11187 ****       124.2500 139.2500  94.5000 Du        
  11188 ****       124.2500 139.2500  94.7500 Du        
  11189 ****       124.2500 139.2500  95.0000 Du        
  11190 ****       124.2500 139.2500  95.2500 Du        
  11191 ****       124.2500 139.2500  95.5000 Du        
  11192 ****       124.2500 139.2500  95.7500 Du        
  11193 ****       124.2500 139.2500  96.0000 Du        
  11194 ****       124.2500 139.2500  96.2500 Du        
  11195 ****       124.2500 139.2500  96.5000 Du        
  11196 ****       124.2500 139.2500  96.7500 Du        
  11197 ****       124.2500 139.2500  97.0000 Du        
  11198 ****       124.2500 139.2500  97.2500 Du        
  11199 ****       124.2500 139.5000  86.0000 Du        
  11200 ****       124.2500 139.5000  86.2500 Du        
  11201 ****       124.2500 139.5000  86.5000 Du        
  11202 ****       124.2500 139.5000  95.2500 Du        
  11203 ****       124.2500 139.5000  95.5000 Du        
  11204 ****       124.2500 139.5000  95.7500 Du        
  11205 ****       124.2500 139.5000  96.0000 Du        
  11206 ****       124.2500 139.5000  96.2500 Du        
  11207 ****       124.2500 139.5000  96.5000 Du        
  11208 ****       124.2500 139.5000  96.7500 Du        
  11209 ****       124.2500 139.5000  97.0000 Du        
  11210 ****       124.2500 139.5000  97.2500 Du        
  11211 ****       124.2500 139.7500  86.0000 Du        
  11212 ****       124.2500 139.7500  86.2500 Du        
  11213 ****       124.2500 139.7500  86.5000 Du        
  11214 ****       124.2500 139.7500  95.5000 Du        
  11215 ****       124.2500 139.7500  95.7500 Du        
  11216 ****       124.2500 139.7500  96.0000 Du        
  11217 ****       124.2500 139.7500  96.2500 Du        
  11218 ****       124.2500 139.7500  96.5000 Du        
  11219 ****       124.2500 139.7500  96.7500 Du        
  11220 ****       124.2500 139.7500  97.0000 Du        
  11221 ****       124.2500 139.7500  97.2500 Du        
  11222 ****       124.2500 140.0000  86.0000 Du        
  11223 ****       124.2500 140.0000  86.2500 Du        
  11224 ****       124.2500 140.0000  86.5000 Du        
  11225 ****       124.2500 140.0000  95.7500 Du        
  11226 ****       124.2500 140.0000  96.0000 Du        
  11227 ****       124.2500 140.0000  96.2500 Du        
  11228 ****       124.2500 140.0000  96.5000 Du        
  11229 ****       124.2500 140.0000  96.7500 Du        
  11230 ****       124.2500 140.0000  97.0000 Du        
  11231 ****       124.2500 140.0000  97.2500 Du        
  11232 ****       124.2500 140.0000  97.5000 Du        
  11233 ****       124.2500 140.2500  96.0000 Du        
  11234 ****       124.2500 140.2500  96.2500 Du        
  11235 ****       124.2500 140.2500  96.5000 Du        
  11236 ****       124.2500 140.2500  96.7500 Du        
  11237 ****       124.2500 140.2500  97.0000 Du        
  11238 ****       124.2500 140.2500  97.2500 Du        
  11239 ****       124.2500 140.2500  97.5000 Du        
  11240 ****       124.2500 140.5000  96.2500 Du        
  11241 ****       124.2500 140.5000  96.5000 Du        
  11242 ****       124.2500 140.5000  96.7500 Du        
  11243 ****       124.2500 140.5000  97.0000 Du        
  11244 ****       124.2500 140.5000  97.2500 Du        
  11245 ****       124.2500 140.5000  97.5000 Du        
  11246 ****       124.2500 140.7500  96.2500 Du        
  11247 ****       124.2500 140.7500  96.5000 Du        
  11248 ****       124.2500 140.7500  96.7500 Du        
  11249 ****       124.2500 140.7500  97.0000 Du        
  11250 ****       124.2500 140.7500  97.2500 Du        
  11251 ****       124.2500 140.7500  97.5000 Du        
  11252 ****       124.2500 141.0000  96.5000 Du        
  11253 ****       124.2500 141.0000  96.7500 Du        
  11254 ****       124.2500 141.0000  97.0000 Du        
  11255 ****       124.2500 141.0000  97.2500 Du        
  11256 ****       124.2500 141.0000  97.5000 Du        
  11257 ****       124.2500 141.2500  96.5000 Du        
  11258 ****       124.2500 141.2500  96.7500 Du        
  11259 ****       124.2500 141.2500  97.0000 Du        
  11260 ****       124.2500 141.2500  97.2500 Du        
  11261 ****       124.2500 141.2500  97.5000 Du        
  11262 ****       124.2500 141.2500  97.7500 Du        
  11263 ****       124.2500 141.5000  96.7500 Du        
  11264 ****       124.2500 141.5000  97.0000 Du        
  11265 ****       124.2500 141.5000  97.2500 Du        
  11266 ****       124.2500 141.5000  97.5000 Du        
  11267 ****       124.2500 141.5000 151.0000 Du        
  11268 ****       124.2500 141.7500  97.0000 Du        
  11269 ****       124.2500 141.7500  97.2500 Du        
  11270 ****       124.2500 141.7500 150.7500 Du        
  11271 ****       124.2500 141.7500 151.0000 Du        
  11272 ****       124.2500 141.7500 151.2500 Du        
  11273 ****       124.2500 141.7500 151.5000 Du        
  11274 ****       124.2500 142.0000 150.7500 Du        
  11275 ****       124.2500 142.0000 151.0000 Du        
  11276 ****       124.2500 142.0000 151.2500 Du        
  11277 ****       124.2500 142.0000 151.5000 Du        
  11278 ****       124.2500 142.0000 151.7500 Du        
  11279 ****       124.2500 142.2500 150.5000 Du        
  11280 ****       124.2500 142.2500 150.7500 Du        
  11281 ****       124.2500 142.2500 151.0000 Du        
  11282 ****       124.2500 142.2500 151.2500 Du        
  11283 ****       124.2500 142.2500 151.5000 Du        
  11284 ****       124.2500 142.2500 151.7500 Du        
  11285 ****       124.2500 142.5000 150.5000 Du        
  11286 ****       124.2500 142.5000 150.7500 Du        
  11287 ****       124.2500 142.5000 151.0000 Du        
  11288 ****       124.2500 142.5000 151.2500 Du        
  11289 ****       124.2500 142.5000 151.5000 Du        
  11290 ****       124.2500 142.5000 151.7500 Du        
  11291 ****       124.2500 142.5000 152.0000 Du        
  11292 ****       124.2500 142.7500 150.5000 Du        
  11293 ****       124.2500 142.7500 150.7500 Du        
  11294 ****       124.2500 142.7500 151.0000 Du        
  11295 ****       124.2500 142.7500 151.2500 Du        
  11296 ****       124.2500 142.7500 151.5000 Du        
  11297 ****       124.2500 142.7500 151.7500 Du        
  11298 ****       124.2500 142.7500 152.0000 Du        
  11299 ****       124.2500 143.0000 150.5000 Du        
  11300 ****       124.2500 143.0000 150.7500 Du        
  11301 ****       124.2500 143.0000 151.0000 Du        
  11302 ****       124.2500 143.0000 151.2500 Du        
  11303 ****       124.2500 143.0000 151.5000 Du        
  11304 ****       124.2500 143.0000 151.7500 Du        
  11305 ****       124.2500 144.2500 122.2500 Du        
  11306 ****       124.2500 144.2500 122.5000 Du        
  11307 ****       124.2500 144.7500 119.0000 Du        
  11308 ****       124.2500 144.7500 122.0000 Du        
  11309 ****       124.2500 144.7500 122.2500 Du        
  11310 ****       124.2500 144.7500 130.7500 Du        
  11311 ****       124.2500 145.0000 118.5000 Du        
  11312 ****       124.2500 145.0000 118.7500 Du        
  11313 ****       124.2500 145.0000 119.0000 Du        
  11314 ****       124.2500 145.0000 119.2500 Du        
  11315 ****       124.2500 145.0000 119.5000 Du        
  11316 ****       124.2500 145.0000 119.7500 Du        
  11317 ****       124.2500 145.0000 120.0000 Du        
  11318 ****       124.2500 145.0000 121.7500 Du        
  11319 ****       124.2500 145.0000 122.0000 Du        
  11320 ****       124.2500 145.0000 122.2500 Du        
  11321 ****       124.2500 145.0000 130.2500 Du        
  11322 ****       124.2500 145.0000 130.5000 Du        
  11323 ****       124.2500 145.0000 130.7500 Du        
  11324 ****       124.2500 145.0000 131.0000 Du        
  11325 ****       124.2500 145.0000 131.2500 Du        
  11326 ****       124.2500 145.0000 131.5000 Du        
  11327 ****       124.2500 145.2500 118.2500 Du        
  11328 ****       124.2500 145.2500 118.5000 Du        
  11329 ****       124.2500 145.2500 118.7500 Du        
  11330 ****       124.2500 145.2500 119.0000 Du        
  11331 ****       124.2500 145.2500 119.2500 Du        
  11332 ****       124.2500 145.2500 119.5000 Du        
  11333 ****       124.2500 145.2500 119.7500 Du        
  11334 ****       124.2500 145.2500 120.0000 Du        
  11335 ****       124.2500 145.2500 120.2500 Du        
  11336 ****       124.2500 145.2500 121.7500 Du        
  11337 ****       124.2500 145.2500 130.0000 Du        
  11338 ****       124.2500 145.2500 130.2500 Du        
  11339 ****       124.2500 145.2500 130.5000 Du        
  11340 ****       124.2500 145.2500 130.7500 Du        
  11341 ****       124.2500 145.2500 131.0000 Du        
  11342 ****       124.2500 145.2500 131.2500 Du        
  11343 ****       124.2500 145.2500 131.5000 Du        
  11344 ****       124.2500 145.2500 131.7500 Du        
  11345 ****       124.2500 145.2500 132.0000 Du        
  11346 ****       124.2500 145.2500 132.2500 Du        
  11347 ****       124.2500 145.5000 118.0000 Du        
  11348 ****       124.2500 145.5000 118.2500 Du        
  11349 ****       124.2500 145.5000 118.5000 Du        
  11350 ****       124.2500 145.5000 118.7500 Du        
  11351 ****       124.2500 145.5000 119.0000 Du        
  11352 ****       124.2500 145.5000 119.2500 Du        
  11353 ****       124.2500 145.5000 119.5000 Du        
  11354 ****       124.2500 145.5000 119.7500 Du        
  11355 ****       124.2500 145.5000 130.0000 Du        
  11356 ****       124.2500 145.5000 130.2500 Du        
  11357 ****       124.2500 145.5000 130.5000 Du        
  11358 ****       124.2500 145.5000 130.7500 Du        
  11359 ****       124.2500 145.5000 131.0000 Du        
  11360 ****       124.2500 145.5000 131.2500 Du        
  11361 ****       124.2500 145.5000 131.5000 Du        
  11362 ****       124.2500 145.5000 131.7500 Du        
  11363 ****       124.2500 145.5000 132.0000 Du        
  11364 ****       124.2500 145.5000 132.2500 Du        
  11365 ****       124.2500 145.5000 132.5000 Du        
  11366 ****       124.2500 145.7500 117.7500 Du        
  11367 ****       124.2500 145.7500 118.0000 Du        
  11368 ****       124.2500 145.7500 118.2500 Du        
  11369 ****       124.2500 145.7500 118.5000 Du        
  11370 ****       124.2500 145.7500 118.7500 Du        
  11371 ****       124.2500 145.7500 119.0000 Du        
  11372 ****       124.2500 145.7500 119.2500 Du        
  11373 ****       124.2500 145.7500 130.0000 Du        
  11374 ****       124.2500 145.7500 130.2500 Du        
  11375 ****       124.2500 145.7500 130.5000 Du        
  11376 ****       124.2500 145.7500 130.7500 Du        
  11377 ****       124.2500 145.7500 131.0000 Du        
  11378 ****       124.2500 145.7500 131.2500 Du        
  11379 ****       124.2500 145.7500 131.5000 Du        
  11380 ****       124.2500 145.7500 131.7500 Du        
  11381 ****       124.2500 145.7500 132.0000 Du        
  11382 ****       124.2500 145.7500 132.2500 Du        
  11383 ****       124.2500 145.7500 132.5000 Du        
  11384 ****       124.2500 145.7500 132.7500 Du        
  11385 ****       124.2500 146.0000 117.5000 Du        
  11386 ****       124.2500 146.0000 117.7500 Du        
  11387 ****       124.2500 146.0000 118.0000 Du        
  11388 ****       124.2500 146.0000 118.2500 Du        
  11389 ****       124.2500 146.0000 118.5000 Du        
  11390 ****       124.2500 146.0000 118.7500 Du        
  11391 ****       124.2500 146.0000 119.0000 Du        
  11392 ****       124.2500 146.0000 119.2500 Du        
  11393 ****       124.2500 146.0000 130.2500 Du        
  11394 ****       124.2500 146.0000 130.5000 Du        
  11395 ****       124.2500 146.0000 130.7500 Du        
  11396 ****       124.2500 146.0000 131.0000 Du        
  11397 ****       124.2500 146.0000 131.2500 Du        
  11398 ****       124.2500 146.0000 131.5000 Du        
  11399 ****       124.2500 146.0000 131.7500 Du        
  11400 ****       124.2500 146.0000 132.0000 Du        
  11401 ****       124.2500 146.0000 132.2500 Du        
  11402 ****       124.2500 146.0000 132.5000 Du        
  11403 ****       124.2500 146.0000 132.7500 Du        
  11404 ****       124.2500 146.0000 133.0000 Du        
  11405 ****       124.2500 146.0000 133.2500 Du        
  11406 ****       124.2500 146.2500 117.5000 Du        
  11407 ****       124.2500 146.2500 117.7500 Du        
  11408 ****       124.2500 146.2500 118.0000 Du        
  11409 ****       124.2500 146.2500 118.2500 Du        
  11410 ****       124.2500 146.2500 118.5000 Du        
  11411 ****       124.2500 146.2500 118.7500 Du        
  11412 ****       124.2500 146.2500 119.0000 Du        
  11413 ****       124.2500 146.2500 119.2500 Du        
  11414 ****       124.2500 146.2500 130.7500 Du        
  11415 ****       124.2500 146.2500 131.0000 Du        
  11416 ****       124.2500 146.2500 131.2500 Du        
  11417 ****       124.2500 146.2500 131.5000 Du        
  11418 ****       124.2500 146.2500 131.7500 Du        
  11419 ****       124.2500 146.2500 132.0000 Du        
  11420 ****       124.2500 146.2500 132.2500 Du        
  11421 ****       124.2500 146.2500 132.5000 Du        
  11422 ****       124.2500 146.2500 132.7500 Du        
  11423 ****       124.2500 146.2500 133.0000 Du        
  11424 ****       124.2500 146.2500 133.2500 Du        
  11425 ****       124.2500 146.2500 133.5000 Du        
  11426 ****       124.2500 146.5000 117.7500 Du        
  11427 ****       124.2500 146.5000 118.0000 Du        
  11428 ****       124.2500 146.5000 118.2500 Du        
  11429 ****       124.2500 146.5000 118.5000 Du        
  11430 ****       124.2500 146.5000 118.7500 Du        
  11431 ****       124.2500 146.7500 118.0000 Du        
  11432 ****       124.2500 146.7500 118.2500 Du        
  11433 ****       124.2500 153.2500 155.2500 Du        
  11434 ****       124.2500 153.2500 155.5000 Du        
  11435 ****       124.2500 153.2500 155.7500 Du        
  11436 ****       124.2500 153.2500 156.0000 Du        
  11437 ****       124.2500 153.2500 156.2500 Du        
  11438 ****       124.2500 153.2500 156.5000 Du        
  11439 ****       124.2500 153.2500 156.7500 Du        
  11440 ****       124.2500 153.2500 157.0000 Du        
  11441 ****       124.2500 153.2500 157.2500 Du        
  11442 ****       124.2500 153.2500 157.5000 Du        
  11443 ****       124.2500 153.2500 157.7500 Du        
  11444 ****       124.2500 153.5000 155.7500 Du        
  11445 ****       124.2500 153.5000 156.0000 Du        
  11446 ****       124.2500 153.5000 156.2500 Du        
  11447 ****       124.2500 153.5000 156.5000 Du        
  11448 ****       124.2500 153.5000 156.7500 Du        
  11449 ****       124.2500 153.5000 157.0000 Du        
  11450 ****       124.2500 153.5000 157.2500 Du        
  11451 ****       124.2500 153.5000 157.5000 Du        
  11452 ****       124.2500 153.5000 157.7500 Du        
  11453 ****       124.2500 153.5000 158.0000 Du        
  11454 ****       124.2500 153.7500 156.0000 Du        
  11455 ****       124.2500 153.7500 156.2500 Du        
  11456 ****       124.2500 153.7500 156.5000 Du        
  11457 ****       124.2500 153.7500 156.7500 Du        
  11458 ****       124.2500 153.7500 157.0000 Du        
  11459 ****       124.2500 153.7500 157.2500 Du        
  11460 ****       124.2500 153.7500 157.5000 Du        
  11461 ****       124.2500 153.7500 157.7500 Du        
  11462 ****       124.2500 153.7500 158.0000 Du        
  11463 ****       124.2500 154.0000 156.2500 Du        
  11464 ****       124.2500 154.0000 156.5000 Du        
  11465 ****       124.2500 154.0000 156.7500 Du        
  11466 ****       124.2500 154.0000 157.0000 Du        
  11467 ****       124.2500 154.0000 157.2500 Du        
  11468 ****       124.2500 154.0000 157.5000 Du        
  11469 ****       124.2500 154.0000 157.7500 Du        
  11470 ****       124.2500 154.0000 158.0000 Du        
  11471 ****       124.2500 154.2500 156.5000 Du        
  11472 ****       124.2500 154.2500 156.7500 Du        
  11473 ****       124.2500 154.2500 157.0000 Du        
  11474 ****       124.2500 154.2500 157.2500 Du        
  11475 ****       124.2500 154.2500 157.5000 Du        
  11476 ****       124.2500 154.2500 157.7500 Du        
  11477 ****       124.2500 154.2500 158.0000 Du        
  11478 ****       124.2500 154.5000 156.7500 Du        
  11479 ****       124.2500 154.5000 157.0000 Du        
  11480 ****       124.2500 154.5000 157.2500 Du        
  11481 ****       124.2500 154.5000 157.5000 Du        
  11482 ****       124.2500 154.5000 157.7500 Du        
  11483 ****       124.2500 154.5000 158.0000 Du        
  11484 ****       124.2500 154.7500 157.0000 Du        
  11485 ****       124.2500 154.7500 157.2500 Du        
  11486 ****       124.2500 154.7500 157.5000 Du        
  11487 ****       124.2500 154.7500 157.7500 Du        
  11488 ****       124.2500 154.7500 158.0000 Du        
  11489 ****       124.2500 155.0000 157.0000 Du        
  11490 ****       124.2500 155.0000 157.2500 Du        
  11491 ****       124.2500 155.0000 157.5000 Du        
  11492 ****       124.2500 155.0000 157.7500 Du        
  11493 ****       124.2500 155.0000 158.0000 Du        
  11494 ****       124.5000 123.0000 121.5000 Du        
  11495 ****       124.5000 123.2500 121.0000 Du        
  11496 ****       124.5000 123.2500 121.2500 Du        
  11497 ****       124.5000 123.5000 120.5000 Du        
  11498 ****       124.5000 123.5000 120.7500 Du        
  11499 ****       124.5000 123.5000 121.0000 Du        
  11500 ****       124.5000 123.5000 121.2500 Du        
  11501 ****       124.5000 123.7500 118.0000 Du        
  11502 ****       124.5000 123.7500 118.2500 Du        
  11503 ****       124.5000 123.7500 118.5000 Du        
  11504 ****       124.5000 123.7500 118.7500 Du        
  11505 ****       124.5000 123.7500 119.0000 Du        
  11506 ****       124.5000 123.7500 119.2500 Du        
  11507 ****       124.5000 123.7500 119.5000 Du        
  11508 ****       124.5000 123.7500 119.7500 Du        
  11509 ****       124.5000 123.7500 120.0000 Du        
  11510 ****       124.5000 123.7500 120.2500 Du        
  11511 ****       124.5000 123.7500 120.5000 Du        
  11512 ****       124.5000 123.7500 120.7500 Du        
  11513 ****       124.5000 123.7500 121.0000 Du        
  11514 ****       124.5000 124.0000 118.5000 Du        
  11515 ****       124.5000 124.0000 118.7500 Du        
  11516 ****       124.5000 124.0000 119.0000 Du        
  11517 ****       124.5000 124.0000 119.2500 Du        
  11518 ****       124.5000 124.0000 119.5000 Du        
  11519 ****       124.5000 124.0000 119.7500 Du        
  11520 ****       124.5000 124.0000 120.0000 Du        
  11521 ****       124.5000 124.0000 120.2500 Du        
  11522 ****       124.5000 124.0000 120.5000 Du        
  11523 ****       124.5000 124.0000 120.7500 Du        
  11524 ****       124.5000 124.2500 119.0000 Du        
  11525 ****       124.5000 124.2500 119.2500 Du        
  11526 ****       124.5000 124.2500 119.5000 Du        
  11527 ****       124.5000 124.2500 119.7500 Du        
  11528 ****       124.5000 124.2500 120.0000 Du        
  11529 ****       124.5000 124.2500 120.2500 Du        
  11530 ****       124.5000 124.2500 120.5000 Du        
  11531 ****       124.5000 124.5000 119.7500 Du        
  11532 ****       124.5000 124.5000 120.0000 Du        
  11533 ****       124.5000 124.5000 120.2500 Du        
  11534 ****       124.5000 125.5000 102.0000 Du        
  11535 ****       124.5000 125.5000 102.2500 Du        
  11536 ****       124.5000 125.7500 101.5000 Du        
  11537 ****       124.5000 125.7500 101.7500 Du        
  11538 ****       124.5000 125.7500 102.0000 Du        
  11539 ****       124.5000 125.7500 102.2500 Du        
  11540 ****       124.5000 125.7500 102.5000 Du        
  11541 ****       124.5000 126.0000 100.7500 Du        
  11542 ****       124.5000 126.0000 101.0000 Du        
  11543 ****       124.5000 126.0000 101.2500 Du        
  11544 ****       124.5000 126.0000 101.5000 Du        
  11545 ****       124.5000 126.0000 101.7500 Du        
  11546 ****       124.5000 126.0000 102.0000 Du        
  11547 ****       124.5000 126.0000 102.2500 Du        
  11548 ****       124.5000 126.0000 102.5000 Du        
  11549 ****       124.5000 126.2500 100.0000 Du        
  11550 ****       124.5000 126.2500 100.2500 Du        
  11551 ****       124.5000 126.2500 100.5000 Du        
  11552 ****       124.5000 126.2500 100.7500 Du        
  11553 ****       124.5000 126.2500 101.0000 Du        
  11554 ****       124.5000 126.2500 101.2500 Du        
  11555 ****       124.5000 126.2500 101.5000 Du        
  11556 ****       124.5000 126.2500 101.7500 Du        
  11557 ****       124.5000 126.2500 102.0000 Du        
  11558 ****       124.5000 126.2500 102.2500 Du        
  11559 ****       124.5000 126.2500 102.5000 Du        
  11560 ****       124.5000 126.2500 102.7500 Du        
  11561 ****       124.5000 126.5000  99.2500 Du        
  11562 ****       124.5000 126.5000  99.5000 Du        
  11563 ****       124.5000 126.5000  99.7500 Du        
  11564 ****       124.5000 126.5000 100.0000 Du        
  11565 ****       124.5000 126.5000 100.2500 Du        
  11566 ****       124.5000 126.5000 100.5000 Du        
  11567 ****       124.5000 126.5000 100.7500 Du        
  11568 ****       124.5000 126.5000 101.0000 Du        
  11569 ****       124.5000 126.5000 101.2500 Du        
  11570 ****       124.5000 126.5000 101.5000 Du        
  11571 ****       124.5000 126.5000 101.7500 Du        
  11572 ****       124.5000 126.5000 102.0000 Du        
  11573 ****       124.5000 126.5000 102.2500 Du        
  11574 ****       124.5000 126.5000 102.5000 Du        
  11575 ****       124.5000 126.5000 102.7500 Du        
  11576 ****       124.5000 126.7500  99.2500 Du        
  11577 ****       124.5000 126.7500  99.5000 Du        
  11578 ****       124.5000 126.7500  99.7500 Du        
  11579 ****       124.5000 126.7500 100.0000 Du        
  11580 ****       124.5000 126.7500 100.2500 Du        
  11581 ****       124.5000 126.7500 100.5000 Du        
  11582 ****       124.5000 126.7500 100.7500 Du        
  11583 ****       124.5000 126.7500 101.0000 Du        
  11584 ****       124.5000 126.7500 102.0000 Du        
  11585 ****       124.5000 126.7500 102.2500 Du        
  11586 ****       124.5000 126.7500 102.5000 Du        
  11587 ****       124.5000 127.0000  99.2500 Du        
  11588 ****       124.5000 127.0000  99.5000 Du        
  11589 ****       124.5000 127.0000  99.7500 Du        
  11590 ****       124.5000 127.0000 100.0000 Du        
  11591 ****       124.5000 130.5000 162.5000 Du        
  11592 ****       124.5000 130.5000 162.7500 Du        
  11593 ****       124.5000 130.5000 163.0000 Du        
  11594 ****       124.5000 130.5000 163.2500 Du        
  11595 ****       124.5000 130.5000 163.5000 Du        
  11596 ****       124.5000 130.7500 162.5000 Du        
  11597 ****       124.5000 130.7500 162.7500 Du        
  11598 ****       124.5000 130.7500 163.0000 Du        
  11599 ****       124.5000 130.7500 163.2500 Du        
  11600 ****       124.5000 130.7500 163.5000 Du        
  11601 ****       124.5000 130.7500 163.7500 Du        
  11602 ****       124.5000 130.7500 164.0000 Du        
  11603 ****       124.5000 131.0000 162.5000 Du        
  11604 ****       124.5000 131.0000 162.7500 Du        
  11605 ****       124.5000 131.0000 163.0000 Du        
  11606 ****       124.5000 131.0000 163.2500 Du        
  11607 ****       124.5000 131.0000 163.5000 Du        
  11608 ****       124.5000 131.0000 163.7500 Du        
  11609 ****       124.5000 131.0000 164.0000 Du        
  11610 ****       124.5000 131.0000 164.2500 Du        
  11611 ****       124.5000 131.2500 162.5000 Du        
  11612 ****       124.5000 131.2500 162.7500 Du        
  11613 ****       124.5000 131.2500 163.0000 Du        
  11614 ****       124.5000 131.2500 163.2500 Du        
  11615 ****       124.5000 131.2500 163.5000 Du        
  11616 ****       124.5000 131.2500 163.7500 Du        
  11617 ****       124.5000 131.2500 164.0000 Du        
  11618 ****       124.5000 131.2500 164.2500 Du        
  11619 ****       124.5000 131.2500 164.5000 Du        
  11620 ****       124.5000 131.5000 162.7500 Du        
  11621 ****       124.5000 131.5000 163.0000 Du        
  11622 ****       124.5000 131.5000 163.2500 Du        
  11623 ****       124.5000 131.5000 163.5000 Du        
  11624 ****       124.5000 131.5000 163.7500 Du        
  11625 ****       124.5000 131.5000 164.0000 Du        
  11626 ****       124.5000 131.5000 164.2500 Du        
  11627 ****       124.5000 131.5000 164.5000 Du        
  11628 ****       124.5000 131.5000 164.7500 Du        
  11629 ****       124.5000 131.7500 162.7500 Du        
  11630 ****       124.5000 131.7500 163.0000 Du        
  11631 ****       124.5000 131.7500 163.2500 Du        
  11632 ****       124.5000 131.7500 163.5000 Du        
  11633 ****       124.5000 131.7500 163.7500 Du        
  11634 ****       124.5000 131.7500 164.0000 Du        
  11635 ****       124.5000 131.7500 164.2500 Du        
  11636 ****       124.5000 131.7500 164.5000 Du        
  11637 ****       124.5000 131.7500 164.7500 Du        
  11638 ****       124.5000 131.7500 165.0000 Du        
  11639 ****       124.5000 131.7500 165.2500 Du        
  11640 ****       124.5000 132.0000 162.5000 Du        
  11641 ****       124.5000 132.0000 162.7500 Du        
  11642 ****       124.5000 132.0000 163.0000 Du        
  11643 ****       124.5000 132.0000 163.2500 Du        
  11644 ****       124.5000 132.0000 163.5000 Du        
  11645 ****       124.5000 132.0000 163.7500 Du        
  11646 ****       124.5000 132.0000 164.0000 Du        
  11647 ****       124.5000 132.0000 164.2500 Du        
  11648 ****       124.5000 132.0000 164.5000 Du        
  11649 ****       124.5000 132.0000 164.7500 Du        
  11650 ****       124.5000 132.0000 165.0000 Du        
  11651 ****       124.5000 132.0000 165.2500 Du        
  11652 ****       124.5000 132.0000 165.5000 Du        
  11653 ****       124.5000 132.2500 162.7500 Du        
  11654 ****       124.5000 132.2500 163.0000 Du        
  11655 ****       124.5000 132.2500 163.2500 Du        
  11656 ****       124.5000 132.2500 163.5000 Du        
  11657 ****       124.5000 132.2500 163.7500 Du        
  11658 ****       124.5000 132.2500 164.0000 Du        
  11659 ****       124.5000 132.2500 164.2500 Du        
  11660 ****       124.5000 132.2500 164.5000 Du        
  11661 ****       124.5000 132.2500 164.7500 Du        
  11662 ****       124.5000 132.2500 165.0000 Du        
  11663 ****       124.5000 132.2500 165.2500 Du        
  11664 ****       124.5000 132.2500 165.5000 Du        
  11665 ****       124.5000 132.2500 165.7500 Du        
  11666 ****       124.5000 132.5000 163.2500 Du        
  11667 ****       124.5000 132.5000 163.5000 Du        
  11668 ****       124.5000 132.5000 163.7500 Du        
  11669 ****       124.5000 132.5000 164.0000 Du        
  11670 ****       124.5000 132.5000 164.2500 Du        
  11671 ****       124.5000 132.5000 164.5000 Du        
  11672 ****       124.5000 132.5000 164.7500 Du        
  11673 ****       124.5000 132.5000 165.0000 Du        
  11674 ****       124.5000 132.5000 165.2500 Du        
  11675 ****       124.5000 132.5000 165.5000 Du        
  11676 ****       124.5000 132.5000 165.7500 Du        
  11677 ****       124.5000 132.5000 166.0000 Du        
  11678 ****       124.5000 132.7500 164.0000 Du        
  11679 ****       124.5000 132.7500 164.2500 Du        
  11680 ****       124.5000 132.7500 164.5000 Du        
  11681 ****       124.5000 132.7500 164.7500 Du        
  11682 ****       124.5000 132.7500 165.0000 Du        
  11683 ****       124.5000 132.7500 165.2500 Du        
  11684 ****       124.5000 132.7500 165.5000 Du        
  11685 ****       124.5000 132.7500 165.7500 Du        
  11686 ****       124.5000 132.7500 166.0000 Du        
  11687 ****       124.5000 133.0000 164.2500 Du        
  11688 ****       124.5000 133.0000 164.5000 Du        
  11689 ****       124.5000 133.0000 164.7500 Du        
  11690 ****       124.5000 133.0000 165.0000 Du        
  11691 ****       124.5000 133.0000 165.2500 Du        
  11692 ****       124.5000 133.0000 165.5000 Du        
  11693 ****       124.5000 133.0000 165.7500 Du        
  11694 ****       124.5000 133.0000 166.0000 Du        
  11695 ****       124.5000 133.2500 164.7500 Du        
  11696 ****       124.5000 133.2500 165.0000 Du        
  11697 ****       124.5000 133.2500 165.2500 Du        
  11698 ****       124.5000 133.2500 165.5000 Du        
  11699 ****       124.5000 133.2500 165.7500 Du        
  11700 ****       124.5000 133.2500 166.0000 Du        
  11701 ****       124.5000 133.5000 141.0000 Du        
  11702 ****       124.5000 133.5000 141.2500 Du        
  11703 ****       124.5000 133.5000 165.0000 Du        
  11704 ****       124.5000 133.5000 165.2500 Du        
  11705 ****       124.5000 133.5000 165.5000 Du        
  11706 ****       124.5000 133.5000 165.7500 Du        
  11707 ****       124.5000 133.5000 166.0000 Du        
  11708 ****       124.5000 133.7500 140.5000 Du        
  11709 ****       124.5000 133.7500 140.7500 Du        
  11710 ****       124.5000 133.7500 141.0000 Du        
  11711 ****       124.5000 133.7500 141.2500 Du        
  11712 ****       124.5000 133.7500 141.5000 Du        
  11713 ****       124.5000 133.7500 165.2500 Du        
  11714 ****       124.5000 133.7500 165.5000 Du        
  11715 ****       124.5000 133.7500 165.7500 Du        
  11716 ****       124.5000 134.0000 140.2500 Du        
  11717 ****       124.5000 134.0000 140.5000 Du        
  11718 ****       124.5000 134.0000 140.7500 Du        
  11719 ****       124.5000 134.0000 141.0000 Du        
  11720 ****       124.5000 134.0000 141.2500 Du        
  11721 ****       124.5000 134.0000 141.5000 Du        
  11722 ****       124.5000 134.2500 140.2500 Du        
  11723 ****       124.5000 134.2500 140.5000 Du        
  11724 ****       124.5000 134.2500 140.7500 Du        
  11725 ****       124.5000 134.2500 141.0000 Du        
  11726 ****       124.5000 134.2500 141.2500 Du        
  11727 ****       124.5000 134.2500 141.5000 Du        
  11728 ****       124.5000 134.5000 140.2500 Du        
  11729 ****       124.5000 134.5000 140.5000 Du        
  11730 ****       124.5000 134.5000 140.7500 Du        
  11731 ****       124.5000 134.5000 141.0000 Du        
  11732 ****       124.5000 134.5000 141.2500 Du        
  11733 ****       124.5000 134.7500 140.2500 Du        
  11734 ****       124.5000 134.7500 140.5000 Du        
  11735 ****       124.5000 134.7500 140.7500 Du        
  11736 ****       124.5000 134.7500 141.0000 Du        
  11737 ****       124.5000 135.0000 140.2500 Du        
  11738 ****       124.5000 135.0000 140.5000 Du        
  11739 ****       124.5000 135.0000 140.7500 Du        
  11740 ****       124.5000 135.0000 155.7500 Du        
  11741 ****       124.5000 135.0000 156.0000 Du        
  11742 ****       124.5000 135.0000 156.2500 Du        
  11743 ****       124.5000 135.0000 156.5000 Du        
  11744 ****       124.5000 135.0000 156.7500 Du        
  11745 ****       124.5000 135.2500 140.0000 Du        
  11746 ****       124.5000 135.2500 140.2500 Du        
  11747 ****       124.5000 135.2500 155.5000 Du        
  11748 ****       124.5000 135.2500 155.7500 Du        
  11749 ****       124.5000 135.2500 156.0000 Du        
  11750 ****       124.5000 135.2500 156.2500 Du        
  11751 ****       124.5000 135.2500 156.5000 Du        
  11752 ****       124.5000 135.2500 156.7500 Du        
  11753 ****       124.5000 135.5000 155.5000 Du        
  11754 ****       124.5000 135.5000 155.7500 Du        
  11755 ****       124.5000 135.5000 156.0000 Du        
  11756 ****       124.5000 135.5000 156.2500 Du        
  11757 ****       124.5000 135.5000 156.5000 Du        
  11758 ****       124.5000 135.7500 155.2500 Du        
  11759 ****       124.5000 135.7500 155.5000 Du        
  11760 ****       124.5000 135.7500 155.7500 Du        
  11761 ****       124.5000 135.7500 156.0000 Du        
  11762 ****       124.5000 135.7500 156.2500 Du        
  11763 ****       124.5000 136.0000 155.2500 Du        
  11764 ****       124.5000 136.0000 155.5000 Du        
  11765 ****       124.5000 136.0000 155.7500 Du        
  11766 ****       124.5000 136.0000 156.0000 Du        
  11767 ****       124.5000 136.2500 155.5000 Du        
  11768 ****       124.5000 137.7500  94.2500 Du        
  11769 ****       124.5000 137.7500  94.5000 Du        
  11770 ****       124.5000 137.7500  94.7500 Du        
  11771 ****       124.5000 137.7500  95.0000 Du        
  11772 ****       124.5000 137.7500  95.2500 Du        
  11773 ****       124.5000 137.7500  95.5000 Du        
  11774 ****       124.5000 137.7500  95.7500 Du        
  11775 ****       124.5000 137.7500  96.0000 Du        
  11776 ****       124.5000 137.7500  96.2500 Du        
  11777 ****       124.5000 138.0000  93.5000 Du        
  11778 ****       124.5000 138.0000  93.7500 Du        
  11779 ****       124.5000 138.0000  94.0000 Du        
  11780 ****       124.5000 138.0000  94.2500 Du        
  11781 ****       124.5000 138.0000  94.5000 Du        
  11782 ****       124.5000 138.0000  94.7500 Du        
  11783 ****       124.5000 138.0000  95.0000 Du        
  11784 ****       124.5000 138.0000  95.2500 Du        
  11785 ****       124.5000 138.0000  95.5000 Du        
  11786 ****       124.5000 138.0000  95.7500 Du        
  11787 ****       124.5000 138.0000  96.0000 Du        
  11788 ****       124.5000 138.0000  96.2500 Du        
  11789 ****       124.5000 138.0000  96.5000 Du        
  11790 ****       124.5000 138.2500  93.0000 Du        
  11791 ****       124.5000 138.2500  93.2500 Du        
  11792 ****       124.5000 138.2500  93.5000 Du        
  11793 ****       124.5000 138.2500  93.7500 Du        
  11794 ****       124.5000 138.2500  94.0000 Du        
  11795 ****       124.5000 138.2500  94.2500 Du        
  11796 ****       124.5000 138.2500  94.5000 Du        
  11797 ****       124.5000 138.2500  94.7500 Du        
  11798 ****       124.5000 138.2500  95.0000 Du        
  11799 ****       124.5000 138.2500  95.2500 Du        
  11800 ****       124.5000 138.2500  95.5000 Du        
  11801 ****       124.5000 138.2500  95.7500 Du        
  11802 ****       124.5000 138.2500  96.0000 Du        
  11803 ****       124.5000 138.2500  96.2500 Du        
  11804 ****       124.5000 138.2500  96.5000 Du        
  11805 ****       124.5000 138.5000  93.0000 Du        
  11806 ****       124.5000 138.5000  93.2500 Du        
  11807 ****       124.5000 138.5000  93.5000 Du        
  11808 ****       124.5000 138.5000  93.7500 Du        
  11809 ****       124.5000 138.5000  94.0000 Du        
  11810 ****       124.5000 138.5000  94.2500 Du        
  11811 ****       124.5000 138.5000  94.5000 Du        
  11812 ****       124.5000 138.5000  94.7500 Du        
  11813 ****       124.5000 138.5000  95.0000 Du        
  11814 ****       124.5000 138.5000  95.2500 Du        
  11815 ****       124.5000 138.5000  95.5000 Du        
  11816 ****       124.5000 138.5000  95.7500 Du        
  11817 ****       124.5000 138.5000  96.0000 Du        
  11818 ****       124.5000 138.5000  96.2500 Du        
  11819 ****       124.5000 138.5000  96.5000 Du        
  11820 ****       124.5000 138.5000  96.7500 Du        
  11821 ****       124.5000 138.7500  93.0000 Du        
  11822 ****       124.5000 138.7500  93.2500 Du        
  11823 ****       124.5000 138.7500  93.5000 Du        
  11824 ****       124.5000 138.7500  93.7500 Du        
  11825 ****       124.5000 138.7500  94.0000 Du        
  11826 ****       124.5000 138.7500  94.2500 Du        
  11827 ****       124.5000 138.7500  94.5000 Du        
  11828 ****       124.5000 138.7500  94.7500 Du        
  11829 ****       124.5000 138.7500  95.0000 Du        
  11830 ****       124.5000 138.7500  95.2500 Du        
  11831 ****       124.5000 138.7500  95.5000 Du        
  11832 ****       124.5000 138.7500  95.7500 Du        
  11833 ****       124.5000 138.7500  96.0000 Du        
  11834 ****       124.5000 138.7500  96.2500 Du        
  11835 ****       124.5000 138.7500  96.5000 Du        
  11836 ****       124.5000 138.7500  96.7500 Du        
  11837 ****       124.5000 138.7500  97.0000 Du        
  11838 ****       124.5000 139.0000  86.5000 Du        
  11839 ****       124.5000 139.0000  93.7500 Du        
  11840 ****       124.5000 139.0000  94.0000 Du        
  11841 ****       124.5000 139.0000  94.2500 Du        
  11842 ****       124.5000 139.0000  94.5000 Du        
  11843 ****       124.5000 139.0000  94.7500 Du        
  11844 ****       124.5000 139.0000  95.0000 Du        
  11845 ****       124.5000 139.0000  95.2500 Du        
  11846 ****       124.5000 139.0000  95.5000 Du        
  11847 ****       124.5000 139.0000  95.7500 Du        
  11848 ****       124.5000 139.0000  96.0000 Du        
  11849 ****       124.5000 139.0000  96.2500 Du        
  11850 ****       124.5000 139.0000  96.5000 Du        
  11851 ****       124.5000 139.0000  96.7500 Du        
  11852 ****       124.5000 139.0000  97.0000 Du        
  11853 ****       124.5000 139.2500  86.0000 Du        
  11854 ****       124.5000 139.2500  86.2500 Du        
  11855 ****       124.5000 139.2500  86.5000 Du        
  11856 ****       124.5000 139.2500  94.7500 Du        
  11857 ****       124.5000 139.2500  95.0000 Du        
  11858 ****       124.5000 139.2500  95.2500 Du        
  11859 ****       124.5000 139.2500  95.5000 Du        
  11860 ****       124.5000 139.2500  95.7500 Du        
  11861 ****       124.5000 139.2500  96.0000 Du        
  11862 ****       124.5000 139.2500  96.2500 Du        
  11863 ****       124.5000 139.2500  96.5000 Du        
  11864 ****       124.5000 139.2500  96.7500 Du        
  11865 ****       124.5000 139.2500  97.0000 Du        
  11866 ****       124.5000 139.2500  97.2500 Du        
  11867 ****       124.5000 139.5000  86.5000 Du        
  11868 ****       124.5000 139.5000  95.2500 Du        
  11869 ****       124.5000 139.5000  95.5000 Du        
  11870 ****       124.5000 139.5000  95.7500 Du        
  11871 ****       124.5000 139.5000  96.0000 Du        
  11872 ****       124.5000 139.5000  96.2500 Du        
  11873 ****       124.5000 139.5000  96.5000 Du        
  11874 ****       124.5000 139.5000  96.7500 Du        
  11875 ****       124.5000 139.5000  97.0000 Du        
  11876 ****       124.5000 139.5000  97.2500 Du        
  11877 ****       124.5000 139.7500  86.5000 Du        
  11878 ****       124.5000 139.7500  95.7500 Du        
  11879 ****       124.5000 139.7500  96.0000 Du        
  11880 ****       124.5000 139.7500  96.2500 Du        
  11881 ****       124.5000 139.7500  96.5000 Du        
  11882 ****       124.5000 139.7500  96.7500 Du        
  11883 ****       124.5000 139.7500  97.0000 Du        
  11884 ****       124.5000 139.7500  97.2500 Du        
  11885 ****       124.5000 139.7500  97.5000 Du        
  11886 ****       124.5000 140.0000  96.0000 Du        
  11887 ****       124.5000 140.0000  96.2500 Du        
  11888 ****       124.5000 140.0000  96.5000 Du        
  11889 ****       124.5000 140.0000  96.7500 Du        
  11890 ****       124.5000 140.0000  97.0000 Du        
  11891 ****       124.5000 140.0000  97.2500 Du        
  11892 ****       124.5000 140.0000  97.5000 Du        
  11893 ****       124.5000 140.2500  96.0000 Du        
  11894 ****       124.5000 140.2500  96.2500 Du        
  11895 ****       124.5000 140.2500  96.5000 Du        
  11896 ****       124.5000 140.2500  96.7500 Du        
  11897 ****       124.5000 140.2500  97.0000 Du        
  11898 ****       124.5000 140.2500  97.2500 Du        
  11899 ****       124.5000 140.2500  97.5000 Du        
  11900 ****       124.5000 140.5000  96.2500 Du        
  11901 ****       124.5000 140.5000  96.5000 Du        
  11902 ****       124.5000 140.5000  96.7500 Du        
  11903 ****       124.5000 140.5000  97.0000 Du        
  11904 ****       124.5000 140.5000  97.2500 Du        
  11905 ****       124.5000 140.5000  97.5000 Du        
  11906 ****       124.5000 140.5000  97.7500 Du        
  11907 ****       124.5000 140.7500  96.2500 Du        
  11908 ****       124.5000 140.7500  96.5000 Du        
  11909 ****       124.5000 140.7500  96.7500 Du        
  11910 ****       124.5000 140.7500  97.0000 Du        
  11911 ****       124.5000 140.7500  97.2500 Du        
  11912 ****       124.5000 140.7500  97.5000 Du        
  11913 ****       124.5000 140.7500  97.7500 Du        
  11914 ****       124.5000 141.0000  96.5000 Du        
  11915 ****       124.5000 141.0000  96.7500 Du        
  11916 ****       124.5000 141.0000  97.0000 Du        
  11917 ****       124.5000 141.0000  97.2500 Du        
  11918 ****       124.5000 141.0000  97.5000 Du        
  11919 ****       124.5000 141.0000  97.7500 Du        
  11920 ****       124.5000 141.2500  96.5000 Du        
  11921 ****       124.5000 141.2500  96.7500 Du        
  11922 ****       124.5000 141.2500  97.0000 Du        
  11923 ****       124.5000 141.2500  97.2500 Du        
  11924 ****       124.5000 141.2500  97.5000 Du        
  11925 ****       124.5000 141.2500  97.7500 Du        
  11926 ****       124.5000 141.5000  96.7500 Du        
  11927 ****       124.5000 141.5000  97.0000 Du        
  11928 ****       124.5000 141.5000  97.2500 Du        
  11929 ****       124.5000 141.5000  97.5000 Du        
  11930 ****       124.5000 141.5000  97.7500 Du        
  11931 ****       124.5000 141.5000 150.5000 Du        
  11932 ****       124.5000 141.5000 150.7500 Du        
  11933 ****       124.5000 141.5000 151.0000 Du        
  11934 ****       124.5000 141.7500  97.0000 Du        
  11935 ****       124.5000 141.7500  97.2500 Du        
  11936 ****       124.5000 141.7500 150.2500 Du        
  11937 ****       124.5000 141.7500 150.5000 Du        
  11938 ****       124.5000 141.7500 150.7500 Du        
  11939 ****       124.5000 141.7500 151.0000 Du        
  11940 ****       124.5000 141.7500 151.2500 Du        
  11941 ****       124.5000 142.0000 150.2500 Du        
  11942 ****       124.5000 142.0000 150.5000 Du        
  11943 ****       124.5000 142.0000 150.7500 Du        
  11944 ****       124.5000 142.0000 151.0000 Du        
  11945 ****       124.5000 142.0000 151.2500 Du        
  11946 ****       124.5000 142.0000 151.5000 Du        
  11947 ****       124.5000 142.2500 150.2500 Du        
  11948 ****       124.5000 142.2500 150.5000 Du        
  11949 ****       124.5000 142.2500 150.7500 Du        
  11950 ****       124.5000 142.2500 151.0000 Du        
  11951 ****       124.5000 142.2500 151.2500 Du        
  11952 ****       124.5000 142.2500 151.5000 Du        
  11953 ****       124.5000 142.2500 151.7500 Du        
  11954 ****       124.5000 142.5000 150.0000 Du        
  11955 ****       124.5000 142.5000 150.2500 Du        
  11956 ****       124.5000 142.5000 150.5000 Du        
  11957 ****       124.5000 142.5000 150.7500 Du        
  11958 ****       124.5000 142.5000 151.0000 Du        
  11959 ****       124.5000 142.5000 151.2500 Du        
  11960 ****       124.5000 142.5000 151.5000 Du        
  11961 ****       124.5000 142.5000 151.7500 Du        
  11962 ****       124.5000 142.7500 150.0000 Du        
  11963 ****       124.5000 142.7500 150.2500 Du        
  11964 ****       124.5000 142.7500 150.5000 Du        
  11965 ****       124.5000 142.7500 150.7500 Du        
  11966 ****       124.5000 142.7500 151.0000 Du        
  11967 ****       124.5000 142.7500 151.2500 Du        
  11968 ****       124.5000 142.7500 151.5000 Du        
  11969 ****       124.5000 142.7500 151.7500 Du        
  11970 ****       124.5000 142.7500 152.0000 Du        
  11971 ****       124.5000 143.0000 150.0000 Du        
  11972 ****       124.5000 143.0000 150.2500 Du        
  11973 ****       124.5000 143.0000 150.5000 Du        
  11974 ****       124.5000 143.0000 150.7500 Du        
  11975 ****       124.5000 143.0000 151.0000 Du        
  11976 ****       124.5000 143.0000 151.2500 Du        
  11977 ****       124.5000 143.0000 151.5000 Du        
  11978 ****       124.5000 143.0000 151.7500 Du        
  11979 ****       124.5000 143.2500 150.0000 Du        
  11980 ****       124.5000 143.2500 150.2500 Du        
  11981 ****       124.5000 143.2500 150.5000 Du        
  11982 ****       124.5000 143.2500 150.7500 Du        
  11983 ****       124.5000 143.2500 151.0000 Du        
  11984 ****       124.5000 143.5000 150.0000 Du        
  11985 ****       124.5000 143.5000 150.5000 Du        
  11986 ****       124.5000 144.0000 122.7500 Du        
  11987 ****       124.5000 144.2500 122.2500 Du        
  11988 ****       124.5000 144.2500 122.5000 Du        
  11989 ****       124.5000 144.2500 122.7500 Du        
  11990 ****       124.5000 144.5000 122.0000 Du        
  11991 ****       124.5000 144.5000 122.2500 Du        
  11992 ****       124.5000 144.5000 122.5000 Du        
  11993 ****       124.5000 144.5000 122.7500 Du        
  11994 ****       124.5000 144.7500 121.5000 Du        
  11995 ****       124.5000 144.7500 121.7500 Du        
  11996 ****       124.5000 144.7500 122.0000 Du        
  11997 ****       124.5000 144.7500 122.2500 Du        
  11998 ****       124.5000 144.7500 122.5000 Du        
  11999 ****       124.5000 144.7500 122.7500 Du        
  12000 ****       124.5000 145.0000 118.7500 Du        
  12001 ****       124.5000 145.0000 119.0000 Du        
  12002 ****       124.5000 145.0000 119.2500 Du        
  12003 ****       124.5000 145.0000 119.5000 Du        
  12004 ****       124.5000 145.0000 119.7500 Du        
  12005 ****       124.5000 145.0000 120.0000 Du        
  12006 ****       124.5000 145.0000 121.2500 Du        
  12007 ****       124.5000 145.0000 121.5000 Du        
  12008 ****       124.5000 145.0000 121.7500 Du        
  12009 ****       124.5000 145.0000 122.0000 Du        
  12010 ****       124.5000 145.0000 122.2500 Du        
  12011 ****       124.5000 145.0000 122.5000 Du        
  12012 ****       124.5000 145.0000 122.7500 Du        
  12013 ****       124.5000 145.0000 123.0000 Du        
  12014 ****       124.5000 145.0000 130.2500 Du        
  12015 ****       124.5000 145.0000 130.5000 Du        
  12016 ****       124.5000 145.0000 130.7500 Du        
  12017 ****       124.5000 145.0000 131.0000 Du        
  12018 ****       124.5000 145.2500 118.2500 Du        
  12019 ****       124.5000 145.2500 118.5000 Du        
  12020 ****       124.5000 145.2500 118.7500 Du        
  12021 ****       124.5000 145.2500 119.0000 Du        
  12022 ****       124.5000 145.2500 119.2500 Du        
  12023 ****       124.5000 145.2500 119.5000 Du        
  12024 ****       124.5000 145.2500 119.7500 Du        
  12025 ****       124.5000 145.2500 120.0000 Du        
  12026 ****       124.5000 145.2500 120.2500 Du        
  12027 ****       124.5000 145.2500 121.2500 Du        
  12028 ****       124.5000 145.2500 121.5000 Du        
  12029 ****       124.5000 145.2500 121.7500 Du        
  12030 ****       124.5000 145.2500 122.0000 Du        
  12031 ****       124.5000 145.2500 122.2500 Du        
  12032 ****       124.5000 145.2500 122.5000 Du        
  12033 ****       124.5000 145.2500 122.7500 Du        
  12034 ****       124.5000 145.2500 130.0000 Du        
  12035 ****       124.5000 145.2500 130.2500 Du        
  12036 ****       124.5000 145.2500 130.5000 Du        
  12037 ****       124.5000 145.2500 130.7500 Du        
  12038 ****       124.5000 145.2500 131.0000 Du        
  12039 ****       124.5000 145.2500 131.2500 Du        
  12040 ****       124.5000 145.2500 131.5000 Du        
  12041 ****       124.5000 145.5000 118.0000 Du        
  12042 ****       124.5000 145.5000 118.2500 Du        
  12043 ****       124.5000 145.5000 118.5000 Du        
  12044 ****       124.5000 145.5000 118.7500 Du        
  12045 ****       124.5000 145.5000 119.0000 Du        
  12046 ****       124.5000 145.5000 119.2500 Du        
  12047 ****       124.5000 145.5000 119.5000 Du        
  12048 ****       124.5000 145.5000 119.7500 Du        
  12049 ****       124.5000 145.5000 120.0000 Du        
  12050 ****       124.5000 145.5000 120.2500 Du        
  12051 ****       124.5000 145.5000 130.0000 Du        
  12052 ****       124.5000 145.5000 130.2500 Du        
  12053 ****       124.5000 145.5000 130.5000 Du        
  12054 ****       124.5000 145.5000 130.7500 Du        
  12055 ****       124.5000 145.5000 131.0000 Du        
  12056 ****       124.5000 145.5000 131.2500 Du        
  12057 ****       124.5000 145.5000 131.5000 Du        
  12058 ****       124.5000 145.5000 131.7500 Du        
  12059 ****       124.5000 145.7500 117.7500 Du        
  12060 ****       124.5000 145.7500 118.0000 Du        
  12061 ****       124.5000 145.7500 118.2500 Du        
  12062 ****       124.5000 145.7500 118.5000 Du        
  12063 ****       124.5000 145.7500 118.7500 Du        
  12064 ****       124.5000 145.7500 119.0000 Du        
  12065 ****       124.5000 145.7500 119.2500 Du        
  12066 ****       124.5000 145.7500 119.5000 Du        
  12067 ****       124.5000 145.7500 119.7500 Du        
  12068 ****       124.5000 145.7500 120.0000 Du        
  12069 ****       124.5000 145.7500 120.2500 Du        
  12070 ****       124.5000 145.7500 130.0000 Du        
  12071 ****       124.5000 145.7500 130.2500 Du        
  12072 ****       124.5000 145.7500 130.5000 Du        
  12073 ****       124.5000 145.7500 130.7500 Du        
  12074 ****       124.5000 145.7500 131.0000 Du        
  12075 ****       124.5000 145.7500 131.2500 Du        
  12076 ****       124.5000 145.7500 131.5000 Du        
  12077 ****       124.5000 145.7500 131.7500 Du        
  12078 ****       124.5000 145.7500 132.0000 Du        
  12079 ****       124.5000 145.7500 132.2500 Du        
  12080 ****       124.5000 146.0000 117.7500 Du        
  12081 ****       124.5000 146.0000 118.0000 Du        
  12082 ****       124.5000 146.0000 118.2500 Du        
  12083 ****       124.5000 146.0000 118.5000 Du        
  12084 ****       124.5000 146.0000 118.7500 Du        
  12085 ****       124.5000 146.0000 119.0000 Du        
  12086 ****       124.5000 146.0000 119.2500 Du        
  12087 ****       124.5000 146.0000 119.5000 Du        
  12088 ****       124.5000 146.0000 119.7500 Du        
  12089 ****       124.5000 146.0000 130.5000 Du        
  12090 ****       124.5000 146.0000 130.7500 Du        
  12091 ****       124.5000 146.0000 131.0000 Du        
  12092 ****       124.5000 146.0000 131.2500 Du        
  12093 ****       124.5000 146.0000 131.5000 Du        
  12094 ****       124.5000 146.0000 131.7500 Du        
  12095 ****       124.5000 146.0000 132.0000 Du        
  12096 ****       124.5000 146.0000 132.2500 Du        
  12097 ****       124.5000 146.0000 132.5000 Du        
  12098 ****       124.5000 146.0000 132.7500 Du        
  12099 ****       124.5000 146.2500 117.7500 Du        
  12100 ****       124.5000 146.2500 118.0000 Du        
  12101 ****       124.5000 146.2500 118.2500 Du        
  12102 ****       124.5000 146.2500 118.5000 Du        
  12103 ****       124.5000 146.2500 118.7500 Du        
  12104 ****       124.5000 146.2500 119.0000 Du        
  12105 ****       124.5000 146.2500 119.2500 Du        
  12106 ****       124.5000 146.2500 130.7500 Du        
  12107 ****       124.5000 146.2500 131.0000 Du        
  12108 ****       124.5000 146.2500 131.2500 Du        
  12109 ****       124.5000 146.2500 131.5000 Du        
  12110 ****       124.5000 146.2500 131.7500 Du        
  12111 ****       124.5000 146.2500 132.0000 Du        
  12112 ****       124.5000 146.2500 132.2500 Du        
  12113 ****       124.5000 146.2500 132.5000 Du        
  12114 ****       124.5000 146.2500 132.7500 Du        
  12115 ****       124.5000 146.2500 133.0000 Du        
  12116 ****       124.5000 146.2500 133.2500 Du        
  12117 ****       124.5000 146.5000 118.0000 Du        
  12118 ****       124.5000 146.5000 118.2500 Du        
  12119 ****       124.5000 146.5000 118.5000 Du        
  12120 ****       124.5000 146.5000 118.7500 Du        
  12121 ****       124.5000 146.5000 119.0000 Du        
  12122 ****       124.5000 146.5000 119.2500 Du        
  12123 ****       124.5000 146.7500 118.2500 Du        
  12124 ****       124.5000 146.7500 118.5000 Du        
  12125 ****       124.5000 146.7500 118.7500 Du        
  12126 ****       124.5000 146.7500 119.0000 Du        
  12127 ****       124.5000 153.5000 156.0000 Du        
  12128 ****       124.5000 153.5000 156.2500 Du        
  12129 ****       124.5000 153.5000 156.5000 Du        
  12130 ****       124.5000 153.5000 156.7500 Du        
  12131 ****       124.5000 153.5000 157.0000 Du        
  12132 ****       124.5000 153.5000 157.2500 Du        
  12133 ****       124.5000 153.5000 157.5000 Du        
  12134 ****       124.5000 153.5000 157.7500 Du        
  12135 ****       124.5000 153.7500 156.2500 Du        
  12136 ****       124.5000 153.7500 156.5000 Du        
  12137 ****       124.5000 153.7500 156.7500 Du        
  12138 ****       124.5000 153.7500 157.0000 Du        
  12139 ****       124.5000 153.7500 157.2500 Du        
  12140 ****       124.5000 153.7500 157.5000 Du        
  12141 ****       124.5000 153.7500 157.7500 Du        
  12142 ****       124.5000 153.7500 158.0000 Du        
  12143 ****       124.5000 154.0000 156.5000 Du        
  12144 ****       124.5000 154.0000 156.7500 Du        
  12145 ****       124.5000 154.0000 157.0000 Du        
  12146 ****       124.5000 154.0000 157.2500 Du        
  12147 ****       124.5000 154.0000 157.5000 Du        
  12148 ****       124.5000 154.0000 157.7500 Du        
  12149 ****       124.5000 154.0000 158.0000 Du        
  12150 ****       124.5000 154.2500 156.7500 Du        
  12151 ****       124.5000 154.2500 157.0000 Du        
  12152 ****       124.5000 154.2500 157.2500 Du        
  12153 ****       124.5000 154.2500 157.5000 Du        
  12154 ****       124.5000 154.2500 157.7500 Du        
  12155 ****       124.5000 154.2500 158.0000 Du        
  12156 ****       124.5000 154.5000 156.7500 Du        
  12157 ****       124.5000 154.5000 157.0000 Du        
  12158 ****       124.5000 154.5000 157.2500 Du        
  12159 ****       124.5000 154.5000 157.5000 Du        
  12160 ****       124.5000 154.5000 157.7500 Du        
  12161 ****       124.5000 154.5000 158.0000 Du        
  12162 ****       124.5000 154.7500 157.0000 Du        
  12163 ****       124.5000 154.7500 157.2500 Du        
  12164 ****       124.5000 154.7500 157.5000 Du        
  12165 ****       124.5000 154.7500 157.7500 Du        
  12166 ****       124.5000 154.7500 158.0000 Du        
  12167 ****       124.5000 155.0000 157.2500 Du        
  12168 ****       124.5000 155.0000 157.5000 Du        
  12169 ****       124.5000 155.0000 157.7500 Du        
  12170 ****       124.5000 155.0000 158.0000 Du        
  12171 ****       124.5000 155.2500 157.5000 Du        
  12172 ****       124.5000 155.2500 157.7500 Du        
  12173 ****       124.5000 158.0000 105.2500 Du        
  12174 ****       124.7500 121.0000 164.0000 Du        
  12175 ****       124.7500 121.0000 164.2500 Du        
  12176 ****       124.7500 121.0000 164.5000 Du        
  12177 ****       124.7500 123.5000 120.7500 Du        
  12178 ****       124.7500 123.7500 120.0000 Du        
  12179 ****       124.7500 123.7500 120.2500 Du        
  12180 ****       124.7500 123.7500 120.5000 Du        
  12181 ****       124.7500 123.7500 120.7500 Du        
  12182 ****       124.7500 124.0000 118.7500 Du        
  12183 ****       124.7500 124.0000 119.0000 Du        
  12184 ****       124.7500 124.0000 119.2500 Du        
  12185 ****       124.7500 124.0000 119.5000 Du        
  12186 ****       124.7500 124.0000 119.7500 Du        
  12187 ****       124.7500 124.0000 120.0000 Du        
  12188 ****       124.7500 124.0000 120.2500 Du        
  12189 ****       124.7500 124.0000 120.5000 Du        
  12190 ****       124.7500 124.2500 119.0000 Du        
  12191 ****       124.7500 124.2500 119.2500 Du        
  12192 ****       124.7500 124.2500 119.5000 Du        
  12193 ****       124.7500 124.2500 119.7500 Du        
  12194 ****       124.7500 124.2500 120.0000 Du        
  12195 ****       124.7500 124.2500 120.2500 Du        
  12196 ****       124.7500 125.5000 102.2500 Du        
  12197 ****       124.7500 125.7500 101.2500 Du        
  12198 ****       124.7500 125.7500 101.5000 Du        
  12199 ****       124.7500 125.7500 101.7500 Du        
  12200 ****       124.7500 125.7500 102.0000 Du        
  12201 ****       124.7500 125.7500 102.2500 Du        
  12202 ****       124.7500 125.7500 102.5000 Du        
  12203 ****       124.7500 126.0000 100.7500 Du        
  12204 ****       124.7500 126.0000 101.0000 Du        
  12205 ****       124.7500 126.0000 101.2500 Du        
  12206 ****       124.7500 126.0000 101.5000 Du        
  12207 ****       124.7500 126.0000 101.7500 Du        
  12208 ****       124.7500 126.0000 102.0000 Du        
  12209 ****       124.7500 126.0000 102.2500 Du        
  12210 ****       124.7500 126.0000 102.5000 Du        
  12211 ****       124.7500 126.2500 100.0000 Du        
  12212 ****       124.7500 126.2500 100.2500 Du        
  12213 ****       124.7500 126.2500 100.5000 Du        
  12214 ****       124.7500 126.2500 100.7500 Du        
  12215 ****       124.7500 126.2500 101.0000 Du        
  12216 ****       124.7500 126.2500 101.2500 Du        
  12217 ****       124.7500 126.2500 101.5000 Du        
  12218 ****       124.7500 126.2500 101.7500 Du        
  12219 ****       124.7500 126.2500 102.0000 Du        
  12220 ****       124.7500 126.2500 102.2500 Du        
  12221 ****       124.7500 126.2500 102.5000 Du        
  12222 ****       124.7500 126.5000  99.2500 Du        
  12223 ****       124.7500 126.5000  99.5000 Du        
  12224 ****       124.7500 126.5000  99.7500 Du        
  12225 ****       124.7500 126.5000 100.0000 Du        
  12226 ****       124.7500 126.5000 100.2500 Du        
  12227 ****       124.7500 126.5000 100.5000 Du        
  12228 ****       124.7500 126.5000 100.7500 Du        
  12229 ****       124.7500 126.5000 101.0000 Du        
  12230 ****       124.7500 126.5000 101.2500 Du        
  12231 ****       124.7500 126.5000 101.7500 Du        
  12232 ****       124.7500 126.5000 102.0000 Du        
  12233 ****       124.7500 126.5000 102.2500 Du        
  12234 ****       124.7500 126.5000 102.5000 Du        
  12235 ****       124.7500 126.7500  99.2500 Du        
  12236 ****       124.7500 126.7500  99.5000 Du        
  12237 ****       124.7500 126.7500  99.7500 Du        
  12238 ****       124.7500 126.7500 100.0000 Du        
  12239 ****       124.7500 126.7500 100.2500 Du        
  12240 ****       124.7500 126.7500 100.5000 Du        
  12241 ****       124.7500 127.0000  99.2500 Du        
  12242 ****       124.7500 127.0000  99.5000 Du        
  12243 ****       124.7500 127.0000  99.7500 Du        
  12244 ****       124.7500 130.2500 162.7500 Du        
  12245 ****       124.7500 130.2500 163.0000 Du        
  12246 ****       124.7500 130.5000 162.5000 Du        
  12247 ****       124.7500 130.5000 162.7500 Du        
  12248 ****       124.7500 130.5000 163.0000 Du        
  12249 ****       124.7500 130.5000 163.2500 Du        
  12250 ****       124.7500 130.5000 163.5000 Du        
  12251 ****       124.7500 130.5000 163.7500 Du        
  12252 ****       124.7500 130.7500 162.5000 Du        
  12253 ****       124.7500 130.7500 162.7500 Du        
  12254 ****       124.7500 130.7500 163.0000 Du        
  12255 ****       124.7500 130.7500 163.2500 Du        
  12256 ****       124.7500 130.7500 163.5000 Du        
  12257 ****       124.7500 130.7500 163.7500 Du        
  12258 ****       124.7500 130.7500 164.0000 Du        
  12259 ****       124.7500 131.0000 162.5000 Du        
  12260 ****       124.7500 131.0000 162.7500 Du        
  12261 ****       124.7500 131.0000 163.0000 Du        
  12262 ****       124.7500 131.0000 163.2500 Du        
  12263 ****       124.7500 131.0000 163.5000 Du        
  12264 ****       124.7500 131.0000 163.7500 Du        
  12265 ****       124.7500 131.0000 164.0000 Du        
  12266 ****       124.7500 131.0000 164.2500 Du        
  12267 ****       124.7500 131.0000 164.5000 Du        
  12268 ****       124.7500 131.2500 162.5000 Du        
  12269 ****       124.7500 131.2500 162.7500 Du        
  12270 ****       124.7500 131.2500 163.0000 Du        
  12271 ****       124.7500 131.2500 163.2500 Du        
  12272 ****       124.7500 131.2500 163.5000 Du        
  12273 ****       124.7500 131.2500 163.7500 Du        
  12274 ****       124.7500 131.2500 164.0000 Du        
  12275 ****       124.7500 131.2500 164.2500 Du        
  12276 ****       124.7500 131.2500 164.5000 Du        
  12277 ****       124.7500 131.2500 164.7500 Du        
  12278 ****       124.7500 131.5000 162.7500 Du        
  12279 ****       124.7500 131.5000 163.0000 Du        
  12280 ****       124.7500 131.5000 163.2500 Du        
  12281 ****       124.7500 131.5000 163.5000 Du        
  12282 ****       124.7500 131.5000 163.7500 Du        
  12283 ****       124.7500 131.5000 164.0000 Du        
  12284 ****       124.7500 131.5000 164.2500 Du        
  12285 ****       124.7500 131.5000 164.5000 Du        
  12286 ****       124.7500 131.5000 164.7500 Du        
  12287 ****       124.7500 131.5000 165.0000 Du        
  12288 ****       124.7500 131.7500 162.5000 Du        
  12289 ****       124.7500 131.7500 162.7500 Du        
  12290 ****       124.7500 131.7500 163.0000 Du        
  12291 ****       124.7500 131.7500 163.2500 Du        
  12292 ****       124.7500 131.7500 163.5000 Du        
  12293 ****       124.7500 131.7500 163.7500 Du        
  12294 ****       124.7500 131.7500 164.0000 Du        
  12295 ****       124.7500 131.7500 164.2500 Du        
  12296 ****       124.7500 131.7500 164.5000 Du        
  12297 ****       124.7500 131.7500 164.7500 Du        
  12298 ****       124.7500 131.7500 165.0000 Du        
  12299 ****       124.7500 131.7500 165.2500 Du        
  12300 ****       124.7500 131.7500 165.5000 Du        
  12301 ****       124.7500 132.0000 162.5000 Du        
  12302 ****       124.7500 132.0000 162.7500 Du        
  12303 ****       124.7500 132.0000 163.0000 Du        
  12304 ****       124.7500 132.0000 163.2500 Du        
  12305 ****       124.7500 132.0000 163.5000 Du        
  12306 ****       124.7500 132.0000 163.7500 Du        
  12307 ****       124.7500 132.0000 164.0000 Du        
  12308 ****       124.7500 132.0000 164.2500 Du        
  12309 ****       124.7500 132.0000 164.5000 Du        
  12310 ****       124.7500 132.0000 164.7500 Du        
  12311 ****       124.7500 132.0000 165.0000 Du        
  12312 ****       124.7500 132.0000 165.2500 Du        
  12313 ****       124.7500 132.0000 165.5000 Du        
  12314 ****       124.7500 132.0000 165.7500 Du        
  12315 ****       124.7500 132.2500 162.7500 Du        
  12316 ****       124.7500 132.2500 163.0000 Du        
  12317 ****       124.7500 132.2500 163.2500 Du        
  12318 ****       124.7500 132.2500 163.5000 Du        
  12319 ****       124.7500 132.2500 163.7500 Du        
  12320 ****       124.7500 132.2500 164.0000 Du        
  12321 ****       124.7500 132.2500 164.2500 Du        
  12322 ****       124.7500 132.2500 164.5000 Du        
  12323 ****       124.7500 132.2500 164.7500 Du        
  12324 ****       124.7500 132.2500 165.0000 Du        
  12325 ****       124.7500 132.2500 165.2500 Du        
  12326 ****       124.7500 132.2500 165.5000 Du        
  12327 ****       124.7500 132.2500 165.7500 Du        
  12328 ****       124.7500 132.5000 162.5000 Du        
  12329 ****       124.7500 132.5000 162.7500 Du        
  12330 ****       124.7500 132.5000 163.0000 Du        
  12331 ****       124.7500 132.5000 163.2500 Du        
  12332 ****       124.7500 132.5000 163.5000 Du        
  12333 ****       124.7500 132.5000 163.7500 Du        
  12334 ****       124.7500 132.5000 164.0000 Du        
  12335 ****       124.7500 132.5000 164.2500 Du        
  12336 ****       124.7500 132.5000 164.5000 Du        
  12337 ****       124.7500 132.5000 164.7500 Du        
  12338 ****       124.7500 132.5000 165.0000 Du        
  12339 ****       124.7500 132.5000 165.2500 Du        
  12340 ****       124.7500 132.5000 165.5000 Du        
  12341 ****       124.7500 132.5000 165.7500 Du        
  12342 ****       124.7500 132.5000 166.0000 Du        
  12343 ****       124.7500 132.7500 163.7500 Du        
  12344 ****       124.7500 132.7500 164.0000 Du        
  12345 ****       124.7500 132.7500 164.2500 Du        
  12346 ****       124.7500 132.7500 164.5000 Du        
  12347 ****       124.7500 132.7500 164.7500 Du        
  12348 ****       124.7500 132.7500 165.0000 Du        
  12349 ****       124.7500 132.7500 165.2500 Du        
  12350 ****       124.7500 132.7500 165.5000 Du        
  12351 ****       124.7500 132.7500 165.7500 Du        
  12352 ****       124.7500 132.7500 166.0000 Du        
  12353 ****       124.7500 133.0000 164.0000 Du        
  12354 ****       124.7500 133.0000 164.2500 Du        
  12355 ****       124.7500 133.0000 164.5000 Du        
  12356 ****       124.7500 133.0000 164.7500 Du        
  12357 ****       124.7500 133.0000 165.0000 Du        
  12358 ****       124.7500 133.0000 165.2500 Du        
  12359 ****       124.7500 133.0000 165.5000 Du        
  12360 ****       124.7500 133.0000 165.7500 Du        
  12361 ****       124.7500 133.0000 166.0000 Du        
  12362 ****       124.7500 133.2500 164.5000 Du        
  12363 ****       124.7500 133.2500 164.7500 Du        
  12364 ****       124.7500 133.2500 165.0000 Du        
  12365 ****       124.7500 133.2500 165.2500 Du        
  12366 ****       124.7500 133.2500 165.5000 Du        
  12367 ****       124.7500 133.2500 165.7500 Du        
  12368 ****       124.7500 133.2500 166.0000 Du        
  12369 ****       124.7500 133.5000 164.7500 Du        
  12370 ****       124.7500 133.5000 165.0000 Du        
  12371 ****       124.7500 133.5000 165.2500 Du        
  12372 ****       124.7500 133.5000 165.5000 Du        
  12373 ****       124.7500 133.5000 165.7500 Du        
  12374 ****       124.7500 133.5000 166.0000 Du        
  12375 ****       124.7500 133.7500 140.7500 Du        
  12376 ****       124.7500 133.7500 141.0000 Du        
  12377 ****       124.7500 133.7500 141.2500 Du        
  12378 ****       124.7500 133.7500 141.5000 Du        
  12379 ****       124.7500 133.7500 165.0000 Du        
  12380 ****       124.7500 133.7500 165.2500 Du        
  12381 ****       124.7500 133.7500 165.5000 Du        
  12382 ****       124.7500 133.7500 165.7500 Du        
  12383 ****       124.7500 134.0000 140.7500 Du        
  12384 ****       124.7500 134.0000 141.0000 Du        
  12385 ****       124.7500 134.0000 141.2500 Du        
  12386 ****       124.7500 134.0000 141.5000 Du        
  12387 ****       124.7500 134.0000 141.7500 Du        
  12388 ****       124.7500 134.0000 165.5000 Du        
  12389 ****       124.7500 134.2500 140.5000 Du        
  12390 ****       124.7500 134.2500 140.7500 Du        
  12391 ****       124.7500 134.2500 141.0000 Du        
  12392 ****       124.7500 134.2500 141.2500 Du        
  12393 ****       124.7500 134.2500 141.5000 Du        
  12394 ****       124.7500 134.5000 140.7500 Du        
  12395 ****       124.7500 134.5000 141.0000 Du        
  12396 ****       124.7500 134.5000 141.2500 Du        
  12397 ****       124.7500 134.7500 140.7500 Du        
  12398 ****       124.7500 134.7500 156.2500 Du        
  12399 ****       124.7500 134.7500 156.5000 Du        
  12400 ****       124.7500 134.7500 156.7500 Du        
  12401 ****       124.7500 135.0000 155.7500 Du        
  12402 ****       124.7500 135.0000 156.0000 Du        
  12403 ****       124.7500 135.0000 156.2500 Du        
  12404 ****       124.7500 135.0000 156.5000 Du        
  12405 ****       124.7500 135.0000 156.7500 Du        
  12406 ****       124.7500 135.0000 157.0000 Du        
  12407 ****       124.7500 135.2500 155.5000 Du        
  12408 ****       124.7500 135.2500 155.7500 Du        
  12409 ****       124.7500 135.2500 156.0000 Du        
  12410 ****       124.7500 135.2500 156.2500 Du        
  12411 ****       124.7500 135.2500 156.5000 Du        
  12412 ****       124.7500 135.2500 156.7500 Du        
  12413 ****       124.7500 135.5000 155.5000 Du        
  12414 ****       124.7500 135.5000 155.7500 Du        
  12415 ****       124.7500 135.5000 156.0000 Du        
  12416 ****       124.7500 135.5000 156.2500 Du        
  12417 ****       124.7500 135.5000 156.5000 Du        
  12418 ****       124.7500 135.7500 155.5000 Du        
  12419 ****       124.7500 135.7500 155.7500 Du        
  12420 ****       124.7500 135.7500 156.0000 Du        
  12421 ****       124.7500 135.7500 156.2500 Du        
  12422 ****       124.7500 136.0000 155.5000 Du        
  12423 ****       124.7500 136.0000 155.7500 Du        
  12424 ****       124.7500 136.0000 156.0000 Du        
  12425 ****       124.7500 137.5000  94.7500 Du        
  12426 ****       124.7500 137.5000  95.0000 Du        
  12427 ****       124.7500 137.5000  95.2500 Du        
  12428 ****       124.7500 137.5000  95.5000 Du        
  12429 ****       124.7500 137.5000  95.7500 Du        
  12430 ****       124.7500 137.5000  96.0000 Du        
  12431 ****       124.7500 137.7500  94.2500 Du        
  12432 ****       124.7500 137.7500  94.5000 Du        
  12433 ****       124.7500 137.7500  94.7500 Du        
  12434 ****       124.7500 137.7500  95.0000 Du        
  12435 ****       124.7500 137.7500  95.2500 Du        
  12436 ****       124.7500 137.7500  95.5000 Du        
  12437 ****       124.7500 137.7500  95.7500 Du        
  12438 ****       124.7500 137.7500  96.0000 Du        
  12439 ****       124.7500 137.7500  96.2500 Du        
  12440 ****       124.7500 138.0000  93.7500 Du        
  12441 ****       124.7500 138.0000  94.0000 Du        
  12442 ****       124.7500 138.0000  94.2500 Du        
  12443 ****       124.7500 138.0000  94.5000 Du        
  12444 ****       124.7500 138.0000  94.7500 Du        
  12445 ****       124.7500 138.0000  95.0000 Du        
  12446 ****       124.7500 138.0000  95.2500 Du        
  12447 ****       124.7500 138.0000  95.5000 Du        
  12448 ****       124.7500 138.0000  95.7500 Du        
  12449 ****       124.7500 138.0000  96.0000 Du        
  12450 ****       124.7500 138.0000  96.2500 Du        
  12451 ****       124.7500 138.0000  96.5000 Du        
  12452 ****       124.7500 138.2500  92.7500 Du        
  12453 ****       124.7500 138.2500  93.0000 Du        
  12454 ****       124.7500 138.2500  93.2500 Du        
  12455 ****       124.7500 138.2500  93.5000 Du        
  12456 ****       124.7500 138.2500  93.7500 Du        
  12457 ****       124.7500 138.2500  94.0000 Du        
  12458 ****       124.7500 138.2500  94.2500 Du        
  12459 ****       124.7500 138.2500  94.5000 Du        
  12460 ****       124.7500 138.2500  94.7500 Du        
  12461 ****       124.7500 138.2500  95.0000 Du        
  12462 ****       124.7500 138.2500  95.2500 Du        
  12463 ****       124.7500 138.2500  95.5000 Du        
  12464 ****       124.7500 138.2500  95.7500 Du        
  12465 ****       124.7500 138.2500  96.0000 Du        
  12466 ****       124.7500 138.2500  96.2500 Du        
  12467 ****       124.7500 138.2500  96.5000 Du        
  12468 ****       124.7500 138.5000  92.7500 Du        
  12469 ****       124.7500 138.5000  93.0000 Du        
  12470 ****       124.7500 138.5000  93.2500 Du        
  12471 ****       124.7500 138.5000  93.5000 Du        
  12472 ****       124.7500 138.5000  93.7500 Du        
  12473 ****       124.7500 138.5000  94.0000 Du        
  12474 ****       124.7500 138.5000  94.2500 Du        
  12475 ****       124.7500 138.5000  94.5000 Du        
  12476 ****       124.7500 138.5000  94.7500 Du        
  12477 ****       124.7500 138.5000  95.0000 Du        
  12478 ****       124.7500 138.5000  95.2500 Du        
  12479 ****       124.7500 138.5000  95.5000 Du        
  12480 ****       124.7500 138.5000  95.7500 Du        
  12481 ****       124.7500 138.5000  96.0000 Du        
  12482 ****       124.7500 138.5000  96.2500 Du        
  12483 ****       124.7500 138.5000  96.5000 Du        
  12484 ****       124.7500 138.5000  96.7500 Du        
  12485 ****       124.7500 138.7500  92.7500 Du        
  12486 ****       124.7500 138.7500  93.0000 Du        
  12487 ****       124.7500 138.7500  93.2500 Du        
  12488 ****       124.7500 138.7500  93.5000 Du        
  12489 ****       124.7500 138.7500  93.7500 Du        
  12490 ****       124.7500 138.7500  94.0000 Du        
  12491 ****       124.7500 138.7500  94.2500 Du        
  12492 ****       124.7500 138.7500  94.5000 Du        
  12493 ****       124.7500 138.7500  94.7500 Du        
  12494 ****       124.7500 138.7500  95.0000 Du        
  12495 ****       124.7500 138.7500  95.2500 Du        
  12496 ****       124.7500 138.7500  95.5000 Du        
  12497 ****       124.7500 138.7500  95.7500 Du        
  12498 ****       124.7500 138.7500  96.0000 Du        
  12499 ****       124.7500 138.7500  96.2500 Du        
  12500 ****       124.7500 138.7500  96.5000 Du        
  12501 ****       124.7500 138.7500  96.7500 Du        
  12502 ****       124.7500 138.7500  97.0000 Du        
  12503 ****       124.7500 139.0000  86.2500 Du        
  12504 ****       124.7500 139.0000  86.5000 Du        
  12505 ****       124.7500 139.0000  86.7500 Du        
  12506 ****       124.7500 139.0000  93.5000 Du        
  12507 ****       124.7500 139.0000  93.7500 Du        
  12508 ****       124.7500 139.0000  94.0000 Du        
  12509 ****       124.7500 139.0000  94.2500 Du        
  12510 ****       124.7500 139.0000  94.5000 Du        
  12511 ****       124.7500 139.0000  94.7500 Du        
  12512 ****       124.7500 139.0000  95.0000 Du        
  12513 ****       124.7500 139.0000  95.2500 Du        
  12514 ****       124.7500 139.0000  95.5000 Du        
  12515 ****       124.7500 139.0000  95.7500 Du        
  12516 ****       124.7500 139.0000  96.0000 Du        
  12517 ****       124.7500 139.0000  96.2500 Du        
  12518 ****       124.7500 139.0000  96.5000 Du        
  12519 ****       124.7500 139.0000  96.7500 Du        
  12520 ****       124.7500 139.0000  97.0000 Du        
  12521 ****       124.7500 139.2500  86.0000 Du        
  12522 ****       124.7500 139.2500  86.2500 Du        
  12523 ****       124.7500 139.2500  86.5000 Du        
  12524 ****       124.7500 139.2500  86.7500 Du        
  12525 ****       124.7500 139.2500  94.7500 Du        
  12526 ****       124.7500 139.2500  95.0000 Du        
  12527 ****       124.7500 139.2500  95.2500 Du        
  12528 ****       124.7500 139.2500  95.5000 Du        
  12529 ****       124.7500 139.2500  95.7500 Du        
  12530 ****       124.7500 139.2500  96.0000 Du        
  12531 ****       124.7500 139.2500  96.2500 Du        
  12532 ****       124.7500 139.2500  96.5000 Du        
  12533 ****       124.7500 139.2500  96.7500 Du        
  12534 ****       124.7500 139.2500  97.0000 Du        
  12535 ****       124.7500 139.2500  97.2500 Du        
  12536 ****       124.7500 139.5000  86.5000 Du        
  12537 ****       124.7500 139.5000  95.2500 Du        
  12538 ****       124.7500 139.5000  95.5000 Du        
  12539 ****       124.7500 139.5000  95.7500 Du        
  12540 ****       124.7500 139.5000  96.0000 Du        
  12541 ****       124.7500 139.5000  96.2500 Du        
  12542 ****       124.7500 139.5000  96.5000 Du        
  12543 ****       124.7500 139.5000  96.7500 Du        
  12544 ****       124.7500 139.5000  97.0000 Du        
  12545 ****       124.7500 139.5000  97.2500 Du        
  12546 ****       124.7500 139.7500  86.5000 Du        
  12547 ****       124.7500 139.7500  95.7500 Du        
  12548 ****       124.7500 139.7500  96.0000 Du        
  12549 ****       124.7500 139.7500  96.2500 Du        
  12550 ****       124.7500 139.7500  96.5000 Du        
  12551 ****       124.7500 139.7500  96.7500 Du        
  12552 ****       124.7500 139.7500  97.0000 Du        
  12553 ****       124.7500 139.7500  97.2500 Du        
  12554 ****       124.7500 139.7500  97.5000 Du        
  12555 ****       124.7500 140.0000  96.0000 Du        
  12556 ****       124.7500 140.0000  96.2500 Du        
  12557 ****       124.7500 140.0000  96.5000 Du        
  12558 ****       124.7500 140.0000  96.7500 Du        
  12559 ****       124.7500 140.0000  97.0000 Du        
  12560 ****       124.7500 140.0000  97.2500 Du        
  12561 ****       124.7500 140.0000  97.5000 Du        
  12562 ****       124.7500 140.0000  97.7500 Du        
  12563 ****       124.7500 140.2500  96.0000 Du        
  12564 ****       124.7500 140.2500  96.2500 Du        
  12565 ****       124.7500 140.2500  96.5000 Du        
  12566 ****       124.7500 140.2500  96.7500 Du        
  12567 ****       124.7500 140.2500  97.0000 Du        
  12568 ****       124.7500 140.2500  97.2500 Du        
  12569 ****       124.7500 140.2500  97.5000 Du        
  12570 ****       124.7500 140.2500  97.7500 Du        
  12571 ****       124.7500 140.5000  96.2500 Du        
  12572 ****       124.7500 140.5000  96.5000 Du        
  12573 ****       124.7500 140.5000  96.7500 Du        
  12574 ****       124.7500 140.5000  97.0000 Du        
  12575 ****       124.7500 140.5000  97.2500 Du        
  12576 ****       124.7500 140.5000  97.5000 Du        
  12577 ****       124.7500 140.5000  97.7500 Du        
  12578 ****       124.7500 140.5000  98.0000 Du        
  12579 ****       124.7500 140.7500  96.2500 Du        
  12580 ****       124.7500 140.7500  96.5000 Du        
  12581 ****       124.7500 140.7500  96.7500 Du        
  12582 ****       124.7500 140.7500  97.0000 Du        
  12583 ****       124.7500 140.7500  97.2500 Du        
  12584 ****       124.7500 140.7500  97.5000 Du        
  12585 ****       124.7500 140.7500  97.7500 Du        
  12586 ****       124.7500 140.7500  98.0000 Du        
  12587 ****       124.7500 141.0000  96.5000 Du        
  12588 ****       124.7500 141.0000  96.7500 Du        
  12589 ****       124.7500 141.0000  97.0000 Du        
  12590 ****       124.7500 141.0000  97.2500 Du        
  12591 ****       124.7500 141.0000  97.5000 Du        
  12592 ****       124.7500 141.0000  97.7500 Du        
  12593 ****       124.7500 141.0000  98.0000 Du        
  12594 ****       124.7500 141.2500  96.5000 Du        
  12595 ****       124.7500 141.2500  96.7500 Du        
  12596 ****       124.7500 141.2500  97.0000 Du        
  12597 ****       124.7500 141.2500  97.2500 Du        
  12598 ****       124.7500 141.2500  97.5000 Du        
  12599 ****       124.7500 141.2500  97.7500 Du        
  12600 ****       124.7500 141.2500  98.0000 Du        
  12601 ****       124.7500 141.2500 150.5000 Du        
  12602 ****       124.7500 141.5000  96.7500 Du        
  12603 ****       124.7500 141.5000  97.0000 Du        
  12604 ****       124.7500 141.5000  97.2500 Du        
  12605 ****       124.7500 141.5000  97.5000 Du        
  12606 ****       124.7500 141.5000  97.7500 Du        
  12607 ****       124.7500 141.5000 150.5000 Du        
  12608 ****       124.7500 141.5000 150.7500 Du        
  12609 ****       124.7500 141.5000 151.0000 Du        
  12610 ****       124.7500 141.7500  97.0000 Du        
  12611 ****       124.7500 141.7500  97.2500 Du        
  12612 ****       124.7500 141.7500 150.2500 Du        
  12613 ****       124.7500 141.7500 150.5000 Du        
  12614 ****       124.7500 141.7500 150.7500 Du        
  12615 ****       124.7500 141.7500 151.0000 Du        
  12616 ****       124.7500 142.0000 150.2500 Du        
  12617 ****       124.7500 142.0000 150.5000 Du        
  12618 ****       124.7500 142.0000 150.7500 Du        
  12619 ****       124.7500 142.0000 151.0000 Du        
  12620 ****       124.7500 142.0000 151.2500 Du        
  12621 ****       124.7500 142.2500 150.0000 Du        
  12622 ****       124.7500 142.2500 150.2500 Du        
  12623 ****       124.7500 142.2500 150.5000 Du        
  12624 ****       124.7500 142.2500 150.7500 Du        
  12625 ****       124.7500 142.2500 151.0000 Du        
  12626 ****       124.7500 142.2500 151.2500 Du        
  12627 ****       124.7500 142.2500 151.5000 Du        
  12628 ****       124.7500 142.5000 149.7500 Du        
  12629 ****       124.7500 142.5000 150.0000 Du        
  12630 ****       124.7500 142.5000 150.2500 Du        
  12631 ****       124.7500 142.5000 150.5000 Du        
  12632 ****       124.7500 142.5000 150.7500 Du        
  12633 ****       124.7500 142.5000 151.0000 Du        
  12634 ****       124.7500 142.5000 151.2500 Du        
  12635 ****       124.7500 142.5000 151.5000 Du        
  12636 ****       124.7500 142.5000 151.7500 Du        
  12637 ****       124.7500 142.7500 149.7500 Du        
  12638 ****       124.7500 142.7500 150.0000 Du        
  12639 ****       124.7500 142.7500 150.2500 Du        
  12640 ****       124.7500 142.7500 150.5000 Du        
  12641 ****       124.7500 142.7500 150.7500 Du        
  12642 ****       124.7500 142.7500 151.0000 Du        
  12643 ****       124.7500 142.7500 151.2500 Du        
  12644 ****       124.7500 142.7500 151.5000 Du        
  12645 ****       124.7500 142.7500 151.7500 Du        
  12646 ****       124.7500 143.0000 149.7500 Du        
  12647 ****       124.7500 143.0000 150.0000 Du        
  12648 ****       124.7500 143.0000 150.2500 Du        
  12649 ****       124.7500 143.0000 150.5000 Du        
  12650 ****       124.7500 143.0000 150.7500 Du        
  12651 ****       124.7500 143.0000 151.0000 Du        
  12652 ****       124.7500 143.0000 151.2500 Du        
  12653 ****       124.7500 143.0000 151.5000 Du        
  12654 ****       124.7500 143.0000 151.7500 Du        
  12655 ****       124.7500 143.2500 149.7500 Du        
  12656 ****       124.7500 143.2500 150.0000 Du        
  12657 ****       124.7500 143.2500 150.2500 Du        
  12658 ****       124.7500 143.2500 150.5000 Du        
  12659 ****       124.7500 143.2500 150.7500 Du        
  12660 ****       124.7500 143.2500 151.0000 Du        
  12661 ****       124.7500 143.2500 151.2500 Du        
  12662 ****       124.7500 143.2500 151.5000 Du        
  12663 ****       124.7500 143.5000 149.5000 Du        
  12664 ****       124.7500 143.5000 149.7500 Du        
  12665 ****       124.7500 143.5000 150.0000 Du        
  12666 ****       124.7500 143.5000 150.2500 Du        
  12667 ****       124.7500 143.5000 150.5000 Du        
  12668 ****       124.7500 143.5000 150.7500 Du        
  12669 ****       124.7500 143.7500 149.5000 Du        
  12670 ****       124.7500 143.7500 149.7500 Du        
  12671 ****       124.7500 143.7500 150.0000 Du        
  12672 ****       124.7500 144.0000 149.5000 Du        
  12673 ****       124.7500 144.0000 149.7500 Du        
  12674 ****       124.7500 144.2500 122.2500 Du        
  12675 ****       124.7500 144.2500 122.5000 Du        
  12676 ****       124.7500 144.2500 122.7500 Du        
  12677 ****       124.7500 144.5000 121.7500 Du        
  12678 ****       124.7500 144.5000 122.0000 Du        
  12679 ****       124.7500 144.5000 122.2500 Du        
  12680 ****       124.7500 144.5000 122.5000 Du        
  12681 ****       124.7500 144.5000 122.7500 Du        
  12682 ****       124.7500 144.7500 121.5000 Du        
  12683 ****       124.7500 144.7500 121.7500 Du        
  12684 ****       124.7500 144.7500 122.0000 Du        
  12685 ****       124.7500 144.7500 122.2500 Du        
  12686 ****       124.7500 144.7500 122.5000 Du        
  12687 ****       124.7500 144.7500 122.7500 Du        
  12688 ****       124.7500 144.7500 123.0000 Du        
  12689 ****       124.7500 145.0000 119.0000 Du        
  12690 ****       124.7500 145.0000 119.2500 Du        
  12691 ****       124.7500 145.0000 119.5000 Du        
  12692 ****       124.7500 145.0000 119.7500 Du        
  12693 ****       124.7500 145.0000 120.0000 Du        
  12694 ****       124.7500 145.0000 120.2500 Du        
  12695 ****       124.7500 145.0000 120.7500 Du        
  12696 ****       124.7500 145.0000 121.0000 Du        
  12697 ****       124.7500 145.0000 121.2500 Du        
  12698 ****       124.7500 145.0000 121.5000 Du        
  12699 ****       124.7500 145.0000 121.7500 Du        
  12700 ****       124.7500 145.0000 122.0000 Du        
  12701 ****       124.7500 145.0000 122.2500 Du        
  12702 ****       124.7500 145.0000 122.5000 Du        
  12703 ****       124.7500 145.0000 122.7500 Du        
  12704 ****       124.7500 145.0000 123.0000 Du        
  12705 ****       124.7500 145.2500 118.7500 Du        
  12706 ****       124.7500 145.2500 119.0000 Du        
  12707 ****       124.7500 145.2500 119.2500 Du        
  12708 ****       124.7500 145.2500 119.5000 Du        
  12709 ****       124.7500 145.2500 119.7500 Du        
  12710 ****       124.7500 145.2500 120.0000 Du        
  12711 ****       124.7500 145.2500 120.2500 Du        
  12712 ****       124.7500 145.2500 120.5000 Du        
  12713 ****       124.7500 145.2500 120.7500 Du        
  12714 ****       124.7500 145.2500 121.0000 Du        
  12715 ****       124.7500 145.2500 121.2500 Du        
  12716 ****       124.7500 145.2500 121.5000 Du        
  12717 ****       124.7500 145.2500 121.7500 Du        
  12718 ****       124.7500 145.2500 122.0000 Du        
  12719 ****       124.7500 145.2500 122.2500 Du        
  12720 ****       124.7500 145.2500 122.5000 Du        
  12721 ****       124.7500 145.2500 122.7500 Du        
  12722 ****       124.7500 145.2500 130.2500 Du        
  12723 ****       124.7500 145.2500 130.5000 Du        
  12724 ****       124.7500 145.2500 130.7500 Du        
  12725 ****       124.7500 145.5000 118.2500 Du        
  12726 ****       124.7500 145.5000 118.5000 Du        
  12727 ****       124.7500 145.5000 118.7500 Du        
  12728 ****       124.7500 145.5000 119.0000 Du        
  12729 ****       124.7500 145.5000 119.2500 Du        
  12730 ****       124.7500 145.5000 119.5000 Du        
  12731 ****       124.7500 145.5000 119.7500 Du        
  12732 ****       124.7500 145.5000 120.0000 Du        
  12733 ****       124.7500 145.5000 120.2500 Du        
  12734 ****       124.7500 145.5000 120.5000 Du        
  12735 ****       124.7500 145.5000 120.7500 Du        
  12736 ****       124.7500 145.5000 121.0000 Du        
  12737 ****       124.7500 145.5000 122.0000 Du        
  12738 ****       124.7500 145.5000 130.2500 Du        
  12739 ****       124.7500 145.5000 130.5000 Du        
  12740 ****       124.7500 145.5000 130.7500 Du        
  12741 ****       124.7500 145.5000 131.0000 Du        
  12742 ****       124.7500 145.7500 118.0000 Du        
  12743 ****       124.7500 145.7500 118.2500 Du        
  12744 ****       124.7500 145.7500 118.5000 Du        
  12745 ****       124.7500 145.7500 118.7500 Du        
  12746 ****       124.7500 145.7500 119.0000 Du        
  12747 ****       124.7500 145.7500 119.2500 Du        
  12748 ****       124.7500 145.7500 119.5000 Du        
  12749 ****       124.7500 145.7500 119.7500 Du        
  12750 ****       124.7500 145.7500 120.0000 Du        
  12751 ****       124.7500 145.7500 120.2500 Du        
  12752 ****       124.7500 145.7500 130.0000 Du        
  12753 ****       124.7500 145.7500 130.2500 Du        
  12754 ****       124.7500 145.7500 130.5000 Du        
  12755 ****       124.7500 145.7500 130.7500 Du        
  12756 ****       124.7500 145.7500 131.0000 Du        
  12757 ****       124.7500 145.7500 131.2500 Du        
  12758 ****       124.7500 145.7500 131.5000 Du        
  12759 ****       124.7500 146.0000 117.7500 Du        
  12760 ****       124.7500 146.0000 118.0000 Du        
  12761 ****       124.7500 146.0000 118.2500 Du        
  12762 ****       124.7500 146.0000 118.5000 Du        
  12763 ****       124.7500 146.0000 118.7500 Du        
  12764 ****       124.7500 146.0000 119.0000 Du        
  12765 ****       124.7500 146.0000 119.2500 Du        
  12766 ****       124.7500 146.0000 119.5000 Du        
  12767 ****       124.7500 146.0000 119.7500 Du        
  12768 ****       124.7500 146.0000 120.0000 Du        
  12769 ****       124.7500 146.0000 120.2500 Du        
  12770 ****       124.7500 146.0000 130.5000 Du        
  12771 ****       124.7500 146.0000 130.7500 Du        
  12772 ****       124.7500 146.0000 131.0000 Du        
  12773 ****       124.7500 146.0000 131.2500 Du        
  12774 ****       124.7500 146.0000 131.5000 Du        
  12775 ****       124.7500 146.0000 131.7500 Du        
  12776 ****       124.7500 146.2500 117.7500 Du        
  12777 ****       124.7500 146.2500 118.0000 Du        
  12778 ****       124.7500 146.2500 118.2500 Du        
  12779 ****       124.7500 146.2500 118.5000 Du        
  12780 ****       124.7500 146.2500 118.7500 Du        
  12781 ****       124.7500 146.2500 119.0000 Du        
  12782 ****       124.7500 146.2500 119.2500 Du        
  12783 ****       124.7500 146.2500 119.5000 Du        
  12784 ****       124.7500 146.2500 130.7500 Du        
  12785 ****       124.7500 146.2500 131.0000 Du        
  12786 ****       124.7500 146.2500 131.2500 Du        
  12787 ****       124.7500 146.2500 131.5000 Du        
  12788 ****       124.7500 146.2500 131.7500 Du        
  12789 ****       124.7500 146.5000 118.0000 Du        
  12790 ****       124.7500 146.5000 118.2500 Du        
  12791 ****       124.7500 146.5000 118.5000 Du        
  12792 ****       124.7500 146.5000 118.7500 Du        
  12793 ****       124.7500 146.5000 119.0000 Du        
  12794 ****       124.7500 146.5000 119.2500 Du        
  12795 ****       124.7500 146.7500 118.2500 Du        
  12796 ****       124.7500 146.7500 118.5000 Du        
  12797 ****       124.7500 146.7500 118.7500 Du        
  12798 ****       124.7500 146.7500 119.0000 Du        
  12799 ****       124.7500 146.7500 119.2500 Du        
  12800 ****       124.7500 147.0000 118.7500 Du        
  12801 ****       124.7500 147.0000 119.0000 Du        
  12802 ****       124.7500 153.5000 156.7500 Du        
  12803 ****       124.7500 153.5000 157.0000 Du        
  12804 ****       124.7500 153.7500 156.5000 Du        
  12805 ****       124.7500 153.7500 156.7500 Du        
  12806 ****       124.7500 153.7500 157.0000 Du        
  12807 ****       124.7500 153.7500 157.2500 Du        
  12808 ****       124.7500 153.7500 157.5000 Du        
  12809 ****       124.7500 153.7500 157.7500 Du        
  12810 ****       124.7500 153.7500 158.0000 Du        
  12811 ****       124.7500 154.0000 156.5000 Du        
  12812 ****       124.7500 154.0000 156.7500 Du        
  12813 ****       124.7500 154.0000 157.0000 Du        
  12814 ****       124.7500 154.0000 157.2500 Du        
  12815 ****       124.7500 154.0000 157.5000 Du        
  12816 ****       124.7500 154.0000 157.7500 Du        
  12817 ****       124.7500 154.0000 158.0000 Du        
  12818 ****       124.7500 154.2500 156.7500 Du        
  12819 ****       124.7500 154.2500 157.0000 Du        
  12820 ****       124.7500 154.2500 157.2500 Du        
  12821 ****       124.7500 154.2500 157.5000 Du        
  12822 ****       124.7500 154.2500 157.7500 Du        
  12823 ****       124.7500 154.2500 158.0000 Du        
  12824 ****       124.7500 154.2500 158.2500 Du        
  12825 ****       124.7500 154.5000 157.0000 Du        
  12826 ****       124.7500 154.5000 157.2500 Du        
  12827 ****       124.7500 154.5000 157.5000 Du        
  12828 ****       124.7500 154.5000 157.7500 Du        
  12829 ****       124.7500 154.5000 158.0000 Du        
  12830 ****       124.7500 154.5000 158.2500 Du        
  12831 ****       124.7500 154.7500 157.2500 Du        
  12832 ****       124.7500 154.7500 157.5000 Du        
  12833 ****       124.7500 154.7500 157.7500 Du        
  12834 ****       124.7500 154.7500 158.0000 Du        
  12835 ****       124.7500 154.7500 158.2500 Du        
  12836 ****       124.7500 155.0000 157.2500 Du        
  12837 ****       124.7500 155.0000 157.5000 Du        
  12838 ****       124.7500 155.0000 157.7500 Du        
  12839 ****       124.7500 155.0000 158.0000 Du        
  12840 ****       124.7500 155.0000 158.2500 Du        
  12841 ****       124.7500 155.2500 157.5000 Du        
  12842 ****       124.7500 155.2500 157.7500 Du        
  12843 ****       124.7500 155.2500 158.0000 Du        
  12844 ****       124.7500 155.2500 158.2500 Du        
  12845 ****       124.7500 155.5000 157.7500 Du        
  12846 ****       124.7500 155.5000 158.0000 Du        
  12847 ****       124.7500 157.7500 105.2500 Du        
  12848 ****       124.7500 158.0000 104.7500 Du        
  12849 ****       124.7500 158.0000 105.0000 Du        
  12850 ****       124.7500 158.0000 105.2500 Du        
  12851 ****       124.7500 158.2500 104.2500 Du        
  12852 ****       124.7500 158.2500 104.5000 Du        
  12853 ****       124.7500 158.2500 104.7500 Du        
  12854 ****       124.7500 158.2500 105.0000 Du        
  12855 ****       125.0000 121.0000 164.2500 Du        
  12856 ****       125.0000 121.0000 164.5000 Du        
  12857 ****       125.0000 121.0000 164.7500 Du        
  12858 ****       125.0000 121.2500 164.2500 Du        
  12859 ****       125.0000 121.2500 164.5000 Du        
  12860 ****       125.0000 121.2500 164.7500 Du        
  12861 ****       125.0000 124.0000 119.2500 Du        
  12862 ****       125.0000 124.0000 119.5000 Du        
  12863 ****       125.0000 124.0000 119.7500 Du        
  12864 ****       125.0000 124.0000 120.0000 Du        
  12865 ****       125.0000 124.2500 119.2500 Du        
  12866 ****       125.0000 124.2500 119.5000 Du        
  12867 ****       125.0000 124.2500 119.7500 Du        
  12868 ****       125.0000 124.2500 120.0000 Du        
  12869 ****       125.0000 125.7500 101.7500 Du        
  12870 ****       125.0000 125.7500 102.0000 Du        
  12871 ****       125.0000 125.7500 102.2500 Du        
  12872 ****       125.0000 126.0000 100.7500 Du        
  12873 ****       125.0000 126.0000 101.0000 Du        
  12874 ****       125.0000 126.0000 101.2500 Du        
  12875 ****       125.0000 126.0000 101.7500 Du        
  12876 ****       125.0000 126.0000 102.0000 Du        
  12877 ****       125.0000 126.0000 102.2500 Du        
  12878 ****       125.0000 126.2500 100.0000 Du        
  12879 ****       125.0000 126.2500 100.2500 Du        
  12880 ****       125.0000 126.2500 100.5000 Du        
  12881 ****       125.0000 126.2500 100.7500 Du        
  12882 ****       125.0000 126.2500 101.0000 Du        
  12883 ****       125.0000 126.5000  99.2500 Du        
  12884 ****       125.0000 126.5000  99.5000 Du        
  12885 ****       125.0000 126.5000  99.7500 Du        
  12886 ****       125.0000 126.5000 100.0000 Du        
  12887 ****       125.0000 126.5000 100.2500 Du        
  12888 ****       125.0000 126.7500  99.2500 Du        
  12889 ****       125.0000 126.7500  99.5000 Du        
  12890 ****       125.0000 126.7500  99.7500 Du        
  12891 ****       125.0000 126.7500 100.0000 Du        
  12892 ****       125.0000 127.0000  99.5000 Du        
  12893 ****       125.0000 130.2500 162.7500 Du        
  12894 ****       125.0000 130.2500 163.0000 Du        
  12895 ****       125.0000 130.2500 163.2500 Du        
  12896 ****       125.0000 130.5000 162.7500 Du        
  12897 ****       125.0000 130.5000 163.0000 Du        
  12898 ****       125.0000 130.5000 163.2500 Du        
  12899 ****       125.0000 130.5000 163.5000 Du        
  12900 ****       125.0000 130.5000 163.7500 Du        
  12901 ****       125.0000 130.7500 162.7500 Du        
  12902 ****       125.0000 130.7500 163.0000 Du        
  12903 ****       125.0000 130.7500 163.2500 Du        
  12904 ****       125.0000 130.7500 163.5000 Du        
  12905 ****       125.0000 130.7500 163.7500 Du        
  12906 ****       125.0000 130.7500 164.0000 Du        
  12907 ****       125.0000 130.7500 164.2500 Du        
  12908 ****       125.0000 131.0000 162.5000 Du        
  12909 ****       125.0000 131.0000 162.7500 Du        
  12910 ****       125.0000 131.0000 163.0000 Du        
  12911 ****       125.0000 131.0000 163.2500 Du        
  12912 ****       125.0000 131.0000 163.5000 Du        
  12913 ****       125.0000 131.0000 163.7500 Du        
  12914 ****       125.0000 131.0000 164.0000 Du        
  12915 ****       125.0000 131.0000 164.2500 Du        
  12916 ****       125.0000 131.0000 164.5000 Du        
  12917 ****       125.0000 131.0000 164.7500 Du        
  12918 ****       125.0000 131.2500 162.5000 Du        
  12919 ****       125.0000 131.2500 162.7500 Du        
  12920 ****       125.0000 131.2500 163.0000 Du        
  12921 ****       125.0000 131.2500 163.2500 Du        
  12922 ****       125.0000 131.2500 163.5000 Du        
  12923 ****       125.0000 131.2500 163.7500 Du        
  12924 ****       125.0000 131.2500 164.0000 Du        
  12925 ****       125.0000 131.2500 164.2500 Du        
  12926 ****       125.0000 131.2500 164.5000 Du        
  12927 ****       125.0000 131.2500 164.7500 Du        
  12928 ****       125.0000 131.2500 165.0000 Du        
  12929 ****       125.0000 131.5000 162.5000 Du        
  12930 ****       125.0000 131.5000 162.7500 Du        
  12931 ****       125.0000 131.5000 163.0000 Du        
  12932 ****       125.0000 131.5000 163.2500 Du        
  12933 ****       125.0000 131.5000 163.5000 Du        
  12934 ****       125.0000 131.5000 163.7500 Du        
  12935 ****       125.0000 131.5000 164.0000 Du        
  12936 ****       125.0000 131.5000 164.2500 Du        
  12937 ****       125.0000 131.5000 164.5000 Du        
  12938 ****       125.0000 131.5000 164.7500 Du        
  12939 ****       125.0000 131.5000 165.0000 Du        
  12940 ****       125.0000 131.5000 165.2500 Du        
  12941 ****       125.0000 131.7500 162.5000 Du        
  12942 ****       125.0000 131.7500 162.7500 Du        
  12943 ****       125.0000 131.7500 163.0000 Du        
  12944 ****       125.0000 131.7500 163.2500 Du        
  12945 ****       125.0000 131.7500 163.5000 Du        
  12946 ****       125.0000 131.7500 163.7500 Du        
  12947 ****       125.0000 131.7500 164.0000 Du        
  12948 ****       125.0000 131.7500 164.2500 Du        
  12949 ****       125.0000 131.7500 164.5000 Du        
  12950 ****       125.0000 131.7500 164.7500 Du        
  12951 ****       125.0000 131.7500 165.0000 Du        
  12952 ****       125.0000 131.7500 165.2500 Du        
  12953 ****       125.0000 131.7500 165.5000 Du        
  12954 ****       125.0000 132.0000 162.5000 Du        
  12955 ****       125.0000 132.0000 162.7500 Du        
  12956 ****       125.0000 132.0000 163.0000 Du        
  12957 ****       125.0000 132.0000 163.2500 Du        
  12958 ****       125.0000 132.0000 163.5000 Du        
  12959 ****       125.0000 132.0000 163.7500 Du        
  12960 ****       125.0000 132.0000 164.0000 Du        
  12961 ****       125.0000 132.0000 164.2500 Du        
  12962 ****       125.0000 132.0000 164.5000 Du        
  12963 ****       125.0000 132.0000 164.7500 Du        
  12964 ****       125.0000 132.0000 165.0000 Du        
  12965 ****       125.0000 132.0000 165.2500 Du        
  12966 ****       125.0000 132.0000 165.5000 Du        
  12967 ****       125.0000 132.0000 165.7500 Du        
  12968 ****       125.0000 132.2500 162.5000 Du        
  12969 ****       125.0000 132.2500 162.7500 Du        
  12970 ****       125.0000 132.2500 163.0000 Du        
  12971 ****       125.0000 132.2500 163.2500 Du        
  12972 ****       125.0000 132.2500 163.5000 Du        
  12973 ****       125.0000 132.2500 163.7500 Du        
  12974 ****       125.0000 132.2500 164.0000 Du        
  12975 ****       125.0000 132.2500 164.2500 Du        
  12976 ****       125.0000 132.2500 164.5000 Du        
  12977 ****       125.0000 132.2500 164.7500 Du        
  12978 ****       125.0000 132.2500 165.0000 Du        
  12979 ****       125.0000 132.2500 165.2500 Du        
  12980 ****       125.0000 132.2500 165.5000 Du        
  12981 ****       125.0000 132.2500 165.7500 Du        
  12982 ****       125.0000 132.2500 166.0000 Du        
  12983 ****       125.0000 132.5000 162.5000 Du        
  12984 ****       125.0000 132.5000 162.7500 Du        
  12985 ****       125.0000 132.5000 163.0000 Du        
  12986 ****       125.0000 132.5000 163.2500 Du        
  12987 ****       125.0000 132.5000 163.5000 Du        
  12988 ****       125.0000 132.5000 163.7500 Du        
  12989 ****       125.0000 132.5000 164.0000 Du        
  12990 ****       125.0000 132.5000 164.2500 Du        
  12991 ****       125.0000 132.5000 164.5000 Du        
  12992 ****       125.0000 132.5000 164.7500 Du        
  12993 ****       125.0000 132.5000 165.0000 Du        
  12994 ****       125.0000 132.5000 165.2500 Du        
  12995 ****       125.0000 132.5000 165.5000 Du        
  12996 ****       125.0000 132.5000 165.7500 Du        
  12997 ****       125.0000 132.5000 166.0000 Du        
  12998 ****       125.0000 132.7500 162.7500 Du        
  12999 ****       125.0000 132.7500 163.0000 Du        
  13000 ****       125.0000 132.7500 163.2500 Du        
  13001 ****       125.0000 132.7500 163.5000 Du        
  13002 ****       125.0000 132.7500 163.7500 Du        
  13003 ****       125.0000 132.7500 164.0000 Du        
  13004 ****       125.0000 132.7500 164.2500 Du        
  13005 ****       125.0000 132.7500 164.5000 Du        
  13006 ****       125.0000 132.7500 164.7500 Du        
  13007 ****       125.0000 132.7500 165.0000 Du        
  13008 ****       125.0000 132.7500 165.2500 Du        
  13009 ****       125.0000 132.7500 165.5000 Du        
  13010 ****       125.0000 132.7500 165.7500 Du        
  13011 ****       125.0000 132.7500 166.0000 Du        
  13012 ****       125.0000 133.0000 163.7500 Du        
  13013 ****       125.0000 133.0000 164.0000 Du        
  13014 ****       125.0000 133.0000 164.2500 Du        
  13015 ****       125.0000 133.0000 164.5000 Du        
  13016 ****       125.0000 133.0000 164.7500 Du        
  13017 ****       125.0000 133.0000 165.0000 Du        
  13018 ****       125.0000 133.0000 165.2500 Du        
  13019 ****       125.0000 133.0000 165.5000 Du        
  13020 ****       125.0000 133.0000 165.7500 Du        
  13021 ****       125.0000 133.0000 166.0000 Du        
  13022 ****       125.0000 133.2500 164.2500 Du        
  13023 ****       125.0000 133.2500 164.5000 Du        
  13024 ****       125.0000 133.2500 164.7500 Du        
  13025 ****       125.0000 133.2500 165.0000 Du        
  13026 ****       125.0000 133.2500 165.2500 Du        
  13027 ****       125.0000 133.2500 165.5000 Du        
  13028 ****       125.0000 133.2500 165.7500 Du        
  13029 ****       125.0000 133.2500 166.0000 Du        
  13030 ****       125.0000 133.5000 164.7500 Du        
  13031 ****       125.0000 133.5000 165.0000 Du        
  13032 ****       125.0000 133.5000 165.2500 Du        
  13033 ****       125.0000 133.5000 165.5000 Du        
  13034 ****       125.0000 133.5000 165.7500 Du        
  13035 ****       125.0000 133.5000 166.0000 Du        
  13036 ****       125.0000 133.7500 141.0000 Du        
  13037 ****       125.0000 133.7500 141.2500 Du        
  13038 ****       125.0000 133.7500 141.5000 Du        
  13039 ****       125.0000 133.7500 165.0000 Du        
  13040 ****       125.0000 133.7500 165.2500 Du        
  13041 ****       125.0000 133.7500 165.5000 Du        
  13042 ****       125.0000 133.7500 165.7500 Du        
  13043 ****       125.0000 134.0000 140.7500 Du        
  13044 ****       125.0000 134.0000 141.0000 Du        
  13045 ****       125.0000 134.0000 141.2500 Du        
  13046 ****       125.0000 134.0000 141.5000 Du        
  13047 ****       125.0000 134.0000 141.7500 Du        
  13048 ****       125.0000 134.0000 165.2500 Du        
  13049 ****       125.0000 134.0000 165.5000 Du        
  13050 ****       125.0000 134.2500 140.7500 Du        
  13051 ****       125.0000 134.2500 141.0000 Du        
  13052 ****       125.0000 134.2500 141.2500 Du        
  13053 ****       125.0000 134.5000 141.0000 Du        
  13054 ****       125.0000 134.7500 156.0000 Du        
  13055 ****       125.0000 134.7500 156.2500 Du        
  13056 ****       125.0000 134.7500 156.5000 Du        
  13057 ****       125.0000 134.7500 156.7500 Du        
  13058 ****       125.0000 135.0000 155.7500 Du        
  13059 ****       125.0000 135.0000 156.0000 Du        
  13060 ****       125.0000 135.0000 156.2500 Du        
  13061 ****       125.0000 135.0000 156.5000 Du        
  13062 ****       125.0000 135.0000 156.7500 Du        
  13063 ****       125.0000 135.0000 157.0000 Du        
  13064 ****       125.0000 135.2500 155.7500 Du        
  13065 ****       125.0000 135.2500 156.0000 Du        
  13066 ****       125.0000 135.2500 156.2500 Du        
  13067 ****       125.0000 135.2500 156.5000 Du        
  13068 ****       125.0000 135.2500 156.7500 Du        
  13069 ****       125.0000 135.5000 155.7500 Du        
  13070 ****       125.0000 135.5000 156.0000 Du        
  13071 ****       125.0000 135.5000 156.2500 Du        
  13072 ****       125.0000 135.5000 156.5000 Du        
  13073 ****       125.0000 135.7500 155.7500 Du        
  13074 ****       125.0000 135.7500 156.0000 Du        
  13075 ****       125.0000 135.7500 156.2500 Du        
  13076 ****       125.0000 136.0000 155.7500 Du        
  13077 ****       125.0000 136.0000 156.0000 Du        
  13078 ****       125.0000 137.2500  95.0000 Du        
  13079 ****       125.0000 137.2500  95.2500 Du        
  13080 ****       125.0000 137.2500  95.5000 Du        
  13081 ****       125.0000 137.2500  95.7500 Du        
  13082 ****       125.0000 137.5000  94.7500 Du        
  13083 ****       125.0000 137.5000  95.0000 Du        
  13084 ****       125.0000 137.5000  95.2500 Du        
  13085 ****       125.0000 137.5000  95.5000 Du        
  13086 ****       125.0000 137.5000  95.7500 Du        
  13087 ****       125.0000 137.5000  96.0000 Du        
  13088 ****       125.0000 137.7500  94.5000 Du        
  13089 ****       125.0000 137.7500  94.7500 Du        
  13090 ****       125.0000 137.7500  95.0000 Du        
  13091 ****       125.0000 137.7500  95.2500 Du        
  13092 ****       125.0000 137.7500  95.5000 Du        
  13093 ****       125.0000 137.7500  95.7500 Du        
  13094 ****       125.0000 137.7500  96.0000 Du        
  13095 ****       125.0000 137.7500  96.2500 Du        
  13096 ****       125.0000 138.0000  93.7500 Du        
  13097 ****       125.0000 138.0000  94.0000 Du        
  13098 ****       125.0000 138.0000  94.2500 Du        
  13099 ****       125.0000 138.0000  94.5000 Du        
  13100 ****       125.0000 138.0000  94.7500 Du        
  13101 ****       125.0000 138.0000  95.0000 Du        
  13102 ****       125.0000 138.0000  95.2500 Du        
  13103 ****       125.0000 138.0000  95.5000 Du        
  13104 ****       125.0000 138.0000  95.7500 Du        
  13105 ****       125.0000 138.0000  96.0000 Du        
  13106 ****       125.0000 138.0000  96.2500 Du        
  13107 ****       125.0000 138.0000  96.5000 Du        
  13108 ****       125.0000 138.2500  92.7500 Du        
  13109 ****       125.0000 138.2500  93.0000 Du        
  13110 ****       125.0000 138.2500  93.2500 Du        
  13111 ****       125.0000 138.2500  93.5000 Du        
  13112 ****       125.0000 138.2500  93.7500 Du        
  13113 ****       125.0000 138.2500  94.0000 Du        
  13114 ****       125.0000 138.2500  94.2500 Du        
  13115 ****       125.0000 138.2500  94.5000 Du        
  13116 ****       125.0000 138.2500  94.7500 Du        
  13117 ****       125.0000 138.2500  95.0000 Du        
  13118 ****       125.0000 138.2500  95.2500 Du        
  13119 ****       125.0000 138.2500  95.5000 Du        
  13120 ****       125.0000 138.2500  95.7500 Du        
  13121 ****       125.0000 138.2500  96.0000 Du        
  13122 ****       125.0000 138.2500  96.2500 Du        
  13123 ****       125.0000 138.2500  96.5000 Du        
  13124 ****       125.0000 138.2500  96.7500 Du        
  13125 ****       125.0000 138.5000  92.5000 Du        
  13126 ****       125.0000 138.5000  92.7500 Du        
  13127 ****       125.0000 138.5000  93.0000 Du        
  13128 ****       125.0000 138.5000  93.2500 Du        
  13129 ****       125.0000 138.5000  93.5000 Du        
  13130 ****       125.0000 138.5000  93.7500 Du        
  13131 ****       125.0000 138.5000  94.0000 Du        
  13132 ****       125.0000 138.5000  94.2500 Du        
  13133 ****       125.0000 138.5000  94.5000 Du        
  13134 ****       125.0000 138.5000  94.7500 Du        
  13135 ****       125.0000 138.5000  95.0000 Du        
  13136 ****       125.0000 138.5000  95.2500 Du        
  13137 ****       125.0000 138.5000  95.5000 Du        
  13138 ****       125.0000 138.5000  95.7500 Du        
  13139 ****       125.0000 138.5000  96.0000 Du        
  13140 ****       125.0000 138.5000  96.2500 Du        
  13141 ****       125.0000 138.5000  96.5000 Du        
  13142 ****       125.0000 138.5000  96.7500 Du        
  13143 ****       125.0000 138.7500  92.5000 Du        
  13144 ****       125.0000 138.7500  92.7500 Du        
  13145 ****       125.0000 138.7500  93.0000 Du        
  13146 ****       125.0000 138.7500  93.2500 Du        
  13147 ****       125.0000 138.7500  93.5000 Du        
  13148 ****       125.0000 138.7500  93.7500 Du        
  13149 ****       125.0000 138.7500  94.0000 Du        
  13150 ****       125.0000 138.7500  94.2500 Du        
  13151 ****       125.0000 138.7500  94.5000 Du        
  13152 ****       125.0000 138.7500  94.7500 Du        
  13153 ****       125.0000 138.7500  95.0000 Du        
  13154 ****       125.0000 138.7500  95.2500 Du        
  13155 ****       125.0000 138.7500  95.5000 Du        
  13156 ****       125.0000 138.7500  95.7500 Du        
  13157 ****       125.0000 138.7500  96.0000 Du        
  13158 ****       125.0000 138.7500  96.2500 Du        
  13159 ****       125.0000 138.7500  96.5000 Du        
  13160 ****       125.0000 138.7500  96.7500 Du        
  13161 ****       125.0000 138.7500  97.0000 Du        
  13162 ****       125.0000 139.0000  86.5000 Du        
  13163 ****       125.0000 139.0000  86.7500 Du        
  13164 ****       125.0000 139.0000  92.5000 Du        
  13165 ****       125.0000 139.0000  92.7500 Du        
  13166 ****       125.0000 139.0000  93.0000 Du        
  13167 ****       125.0000 139.0000  93.2500 Du        
  13168 ****       125.0000 139.0000  93.5000 Du        
  13169 ****       125.0000 139.0000  93.7500 Du        
  13170 ****       125.0000 139.0000  94.0000 Du        
  13171 ****       125.0000 139.0000  94.2500 Du        
  13172 ****       125.0000 139.0000  94.5000 Du        
  13173 ****       125.0000 139.0000  94.7500 Du        
  13174 ****       125.0000 139.0000  95.0000 Du        
  13175 ****       125.0000 139.0000  95.2500 Du        
  13176 ****       125.0000 139.0000  95.5000 Du        
  13177 ****       125.0000 139.0000  95.7500 Du        
  13178 ****       125.0000 139.0000  96.0000 Du        
  13179 ****       125.0000 139.0000  96.2500 Du        
  13180 ****       125.0000 139.0000  96.5000 Du        
  13181 ****       125.0000 139.0000  96.7500 Du        
  13182 ****       125.0000 139.0000  97.0000 Du        
  13183 ****       125.0000 139.2500  86.2500 Du        
  13184 ****       125.0000 139.2500  86.5000 Du        
  13185 ****       125.0000 139.2500  86.7500 Du        
  13186 ****       125.0000 139.2500  94.7500 Du        
  13187 ****       125.0000 139.2500  95.0000 Du        
  13188 ****       125.0000 139.2500  95.2500 Du        
  13189 ****       125.0000 139.2500  95.5000 Du        
  13190 ****       125.0000 139.2500  95.7500 Du        
  13191 ****       125.0000 139.2500  96.0000 Du        
  13192 ****       125.0000 139.2500  96.2500 Du        
  13193 ****       125.0000 139.2500  96.5000 Du        
  13194 ****       125.0000 139.2500  96.7500 Du        
  13195 ****       125.0000 139.2500  97.0000 Du        
  13196 ****       125.0000 139.2500  97.2500 Du        
  13197 ****       125.0000 139.5000  86.5000 Du        
  13198 ****       125.0000 139.5000  86.7500 Du        
  13199 ****       125.0000 139.5000  95.2500 Du        
  13200 ****       125.0000 139.5000  95.5000 Du        
  13201 ****       125.0000 139.5000  95.7500 Du        
  13202 ****       125.0000 139.5000  96.0000 Du        
  13203 ****       125.0000 139.5000  96.2500 Du        
  13204 ****       125.0000 139.5000  96.5000 Du        
  13205 ****       125.0000 139.5000  96.7500 Du        
  13206 ****       125.0000 139.5000  97.0000 Du        
  13207 ****       125.0000 139.5000  97.2500 Du        
  13208 ****       125.0000 139.7500  86.5000 Du        
  13209 ****       125.0000 139.7500  86.7500 Du        
  13210 ****       125.0000 139.7500  95.7500 Du        
  13211 ****       125.0000 139.7500  96.0000 Du        
  13212 ****       125.0000 139.7500  96.2500 Du        
  13213 ****       125.0000 139.7500  96.5000 Du        
  13214 ****       125.0000 139.7500  96.7500 Du        
  13215 ****       125.0000 139.7500  97.0000 Du        
  13216 ****       125.0000 139.7500  97.2500 Du        
  13217 ****       125.0000 139.7500  97.5000 Du        
  13218 ****       125.0000 140.0000  96.0000 Du        
  13219 ****       125.0000 140.0000  96.2500 Du        
  13220 ****       125.0000 140.0000  96.5000 Du        
  13221 ****       125.0000 140.0000  96.7500 Du        
  13222 ****       125.0000 140.0000  97.0000 Du        
  13223 ****       125.0000 140.0000  97.2500 Du        
  13224 ****       125.0000 140.0000  97.5000 Du        
  13225 ****       125.0000 140.0000  97.7500 Du        
  13226 ****       125.0000 140.2500  96.0000 Du        
  13227 ****       125.0000 140.2500  96.2500 Du        
  13228 ****       125.0000 140.2500  96.5000 Du        
  13229 ****       125.0000 140.2500  96.7500 Du        
  13230 ****       125.0000 140.2500  97.0000 Du        
  13231 ****       125.0000 140.2500  97.2500 Du        
  13232 ****       125.0000 140.2500  97.5000 Du        
  13233 ****       125.0000 140.2500  97.7500 Du        
  13234 ****       125.0000 140.2500  98.0000 Du        
  13235 ****       125.0000 140.5000  96.2500 Du        
  13236 ****       125.0000 140.5000  96.5000 Du        
  13237 ****       125.0000 140.5000  96.7500 Du        
  13238 ****       125.0000 140.5000  97.0000 Du        
  13239 ****       125.0000 140.5000  97.2500 Du        
  13240 ****       125.0000 140.5000  97.5000 Du        
  13241 ****       125.0000 140.5000  97.7500 Du        
  13242 ****       125.0000 140.5000  98.0000 Du        
  13243 ****       125.0000 140.5000  98.2500 Du        
  13244 ****       125.0000 140.7500  96.2500 Du        
  13245 ****       125.0000 140.7500  96.5000 Du        
  13246 ****       125.0000 140.7500  96.7500 Du        
  13247 ****       125.0000 140.7500  97.0000 Du        
  13248 ****       125.0000 140.7500  97.2500 Du        
  13249 ****       125.0000 140.7500  97.5000 Du        
  13250 ****       125.0000 140.7500  97.7500 Du        
  13251 ****       125.0000 140.7500  98.0000 Du        
  13252 ****       125.0000 140.7500  98.2500 Du        
  13253 ****       125.0000 141.0000  96.2500 Du        
  13254 ****       125.0000 141.0000  96.5000 Du        
  13255 ****       125.0000 141.0000  96.7500 Du        
  13256 ****       125.0000 141.0000  97.0000 Du        
  13257 ****       125.0000 141.0000  97.2500 Du        
  13258 ****       125.0000 141.0000  97.5000 Du        
  13259 ****       125.0000 141.0000  97.7500 Du        
  13260 ****       125.0000 141.0000  98.0000 Du        
  13261 ****       125.0000 141.0000  98.2500 Du        
  13262 ****       125.0000 141.0000  98.5000 Du        
  13263 ****       125.0000 141.2500  96.5000 Du        
  13264 ****       125.0000 141.2500  96.7500 Du        
  13265 ****       125.0000 141.2500  97.0000 Du        
  13266 ****       125.0000 141.2500  97.2500 Du        
  13267 ****       125.0000 141.2500  97.5000 Du        
  13268 ****       125.0000 141.2500  97.7500 Du        
  13269 ****       125.0000 141.2500  98.0000 Du        
  13270 ****       125.0000 141.2500  98.2500 Du        
  13271 ****       125.0000 141.2500 150.5000 Du        
  13272 ****       125.0000 141.5000  96.5000 Du        
  13273 ****       125.0000 141.5000  96.7500 Du        
  13274 ****       125.0000 141.5000  97.0000 Du        
  13275 ****       125.0000 141.5000  97.2500 Du        
  13276 ****       125.0000 141.5000  97.5000 Du        
  13277 ****       125.0000 141.5000  97.7500 Du        
  13278 ****       125.0000 141.5000 150.5000 Du        
  13279 ****       125.0000 141.5000 150.7500 Du        
  13280 ****       125.0000 141.7500  96.7500 Du        
  13281 ****       125.0000 141.7500  97.0000 Du        
  13282 ****       125.0000 141.7500 150.2500 Du        
  13283 ****       125.0000 141.7500 150.5000 Du        
  13284 ****       125.0000 141.7500 150.7500 Du        
  13285 ****       125.0000 142.0000 150.0000 Du        
  13286 ****       125.0000 142.0000 150.2500 Du        
  13287 ****       125.0000 142.0000 150.5000 Du        
  13288 ****       125.0000 142.0000 150.7500 Du        
  13289 ****       125.0000 142.0000 151.0000 Du        
  13290 ****       125.0000 142.2500 149.7500 Du        
  13291 ****       125.0000 142.2500 150.0000 Du        
  13292 ****       125.0000 142.2500 150.2500 Du        
  13293 ****       125.0000 142.2500 150.5000 Du        
  13294 ****       125.0000 142.2500 150.7500 Du        
  13295 ****       125.0000 142.2500 151.0000 Du        
  13296 ****       125.0000 142.5000 149.5000 Du        
  13297 ****       125.0000 142.5000 149.7500 Du        
  13298 ****       125.0000 142.5000 150.0000 Du        
  13299 ****       125.0000 142.5000 150.2500 Du        
  13300 ****       125.0000 142.5000 150.5000 Du        
  13301 ****       125.0000 142.5000 150.7500 Du        
  13302 ****       125.0000 142.5000 151.0000 Du        
  13303 ****       125.0000 142.5000 151.2500 Du        
  13304 ****       125.0000 142.7500 149.5000 Du        
  13305 ****       125.0000 142.7500 149.7500 Du        
  13306 ****       125.0000 142.7500 150.0000 Du        
  13307 ****       125.0000 142.7500 150.2500 Du        
  13308 ****       125.0000 142.7500 150.5000 Du        
  13309 ****       125.0000 142.7500 150.7500 Du        
  13310 ****       125.0000 142.7500 151.0000 Du        
  13311 ****       125.0000 142.7500 151.2500 Du        
  13312 ****       125.0000 142.7500 151.5000 Du        
  13313 ****       125.0000 143.0000 149.5000 Du        
  13314 ****       125.0000 143.0000 149.7500 Du        
  13315 ****       125.0000 143.0000 150.0000 Du        
  13316 ****       125.0000 143.0000 150.2500 Du        
  13317 ****       125.0000 143.0000 150.5000 Du        
  13318 ****       125.0000 143.0000 150.7500 Du        
  13319 ****       125.0000 143.0000 151.0000 Du        
  13320 ****       125.0000 143.0000 151.2500 Du        
  13321 ****       125.0000 143.0000 151.5000 Du        
  13322 ****       125.0000 143.2500 149.5000 Du        
  13323 ****       125.0000 143.2500 149.7500 Du        
  13324 ****       125.0000 143.2500 150.0000 Du        
  13325 ****       125.0000 143.2500 150.2500 Du        
  13326 ****       125.0000 143.2500 150.5000 Du        
  13327 ****       125.0000 143.2500 150.7500 Du        
  13328 ****       125.0000 143.2500 151.0000 Du        
  13329 ****       125.0000 143.2500 151.2500 Du        
  13330 ****       125.0000 143.2500 151.5000 Du        
  13331 ****       125.0000 143.5000 149.5000 Du        
  13332 ****       125.0000 143.5000 149.7500 Du        
  13333 ****       125.0000 143.5000 150.0000 Du        
  13334 ****       125.0000 143.5000 150.2500 Du        
  13335 ****       125.0000 143.5000 150.5000 Du        
  13336 ****       125.0000 143.5000 150.7500 Du        
  13337 ****       125.0000 143.5000 151.0000 Du        
  13338 ****       125.0000 143.7500 149.5000 Du        
  13339 ****       125.0000 143.7500 149.7500 Du        
  13340 ****       125.0000 143.7500 150.0000 Du        
  13341 ****       125.0000 143.7500 150.2500 Du        
  13342 ****       125.0000 143.7500 150.5000 Du        
  13343 ****       125.0000 144.0000 149.2500 Du        
  13344 ****       125.0000 144.0000 149.5000 Du        
  13345 ****       125.0000 144.0000 149.7500 Du        
  13346 ****       125.0000 144.0000 150.0000 Du        
  13347 ****       125.0000 144.2500 122.2500 Du        
  13348 ****       125.0000 144.2500 122.5000 Du        
  13349 ****       125.0000 144.2500 149.5000 Du        
  13350 ****       125.0000 144.5000 121.7500 Du        
  13351 ****       125.0000 144.5000 122.0000 Du        
  13352 ****       125.0000 144.5000 122.2500 Du        
  13353 ****       125.0000 144.5000 122.5000 Du        
  13354 ****       125.0000 144.7500 121.5000 Du        
  13355 ****       125.0000 144.7500 121.7500 Du        
  13356 ****       125.0000 144.7500 122.0000 Du        
  13357 ****       125.0000 144.7500 122.2500 Du        
  13358 ****       125.0000 144.7500 122.5000 Du        
  13359 ****       125.0000 144.7500 122.7500 Du        
  13360 ****       125.0000 145.0000 119.2500 Du        
  13361 ****       125.0000 145.0000 119.5000 Du        
  13362 ****       125.0000 145.0000 119.7500 Du        
  13363 ****       125.0000 145.0000 120.0000 Du        
  13364 ****       125.0000 145.0000 120.2500 Du        
  13365 ****       125.0000 145.0000 120.5000 Du        
  13366 ****       125.0000 145.0000 120.7500 Du        
  13367 ****       125.0000 145.0000 121.0000 Du        
  13368 ****       125.0000 145.0000 121.2500 Du        
  13369 ****       125.0000 145.0000 121.5000 Du        
  13370 ****       125.0000 145.0000 121.7500 Du        
  13371 ****       125.0000 145.0000 122.0000 Du        
  13372 ****       125.0000 145.0000 122.2500 Du        
  13373 ****       125.0000 145.0000 122.5000 Du        
  13374 ****       125.0000 145.0000 122.7500 Du        
  13375 ****       125.0000 145.2500 118.7500 Du        
  13376 ****       125.0000 145.2500 119.0000 Du        
  13377 ****       125.0000 145.2500 119.2500 Du        
  13378 ****       125.0000 145.2500 119.5000 Du        
  13379 ****       125.0000 145.2500 119.7500 Du        
  13380 ****       125.0000 145.2500 120.0000 Du        
  13381 ****       125.0000 145.2500 120.2500 Du        
  13382 ****       125.0000 145.2500 120.5000 Du        
  13383 ****       125.0000 145.2500 120.7500 Du        
  13384 ****       125.0000 145.2500 121.0000 Du        
  13385 ****       125.0000 145.2500 121.2500 Du        
  13386 ****       125.0000 145.2500 121.5000 Du        
  13387 ****       125.0000 145.2500 121.7500 Du        
  13388 ****       125.0000 145.2500 122.0000 Du        
  13389 ****       125.0000 145.2500 122.2500 Du        
  13390 ****       125.0000 145.2500 122.5000 Du        
  13391 ****       125.0000 145.5000 118.7500 Du        
  13392 ****       125.0000 145.5000 119.0000 Du        
  13393 ****       125.0000 145.5000 119.2500 Du        
  13394 ****       125.0000 145.5000 119.5000 Du        
  13395 ****       125.0000 145.5000 119.7500 Du        
  13396 ****       125.0000 145.5000 120.0000 Du        
  13397 ****       125.0000 145.5000 120.2500 Du        
  13398 ****       125.0000 145.5000 120.5000 Du        
  13399 ****       125.0000 145.5000 120.7500 Du        
  13400 ****       125.0000 145.5000 121.0000 Du        
  13401 ****       125.0000 145.5000 121.2500 Du        
  13402 ****       125.0000 145.5000 121.5000 Du        
  13403 ****       125.0000 145.5000 121.7500 Du        
  13404 ****       125.0000 145.5000 122.0000 Du        
  13405 ****       125.0000 145.7500 118.2500 Du        
  13406 ****       125.0000 145.7500 118.5000 Du        
  13407 ****       125.0000 145.7500 118.7500 Du        
  13408 ****       125.0000 145.7500 119.0000 Du        
  13409 ****       125.0000 145.7500 119.2500 Du        
  13410 ****       125.0000 145.7500 119.5000 Du        
  13411 ****       125.0000 145.7500 119.7500 Du        
  13412 ****       125.0000 145.7500 120.0000 Du        
  13413 ****       125.0000 145.7500 120.2500 Du        
  13414 ****       125.0000 145.7500 120.5000 Du        
  13415 ****       125.0000 145.7500 120.7500 Du        
  13416 ****       125.0000 145.7500 121.0000 Du        
  13417 ****       125.0000 145.7500 130.5000 Du        
  13418 ****       125.0000 145.7500 130.7500 Du        
  13419 ****       125.0000 146.0000 118.0000 Du        
  13420 ****       125.0000 146.0000 118.2500 Du        
  13421 ****       125.0000 146.0000 118.5000 Du        
  13422 ****       125.0000 146.0000 118.7500 Du        
  13423 ****       125.0000 146.0000 119.0000 Du        
  13424 ****       125.0000 146.0000 119.2500 Du        
  13425 ****       125.0000 146.0000 119.5000 Du        
  13426 ****       125.0000 146.0000 119.7500 Du        
  13427 ****       125.0000 146.0000 120.0000 Du        
  13428 ****       125.0000 146.0000 120.2500 Du        
  13429 ****       125.0000 146.0000 130.7500 Du        
  13430 ****       125.0000 146.0000 131.0000 Du        
  13431 ****       125.0000 146.2500 118.0000 Du        
  13432 ****       125.0000 146.2500 118.2500 Du        
  13433 ****       125.0000 146.2500 118.5000 Du        
  13434 ****       125.0000 146.2500 118.7500 Du        
  13435 ****       125.0000 146.2500 119.0000 Du        
  13436 ****       125.0000 146.2500 119.2500 Du        
  13437 ****       125.0000 146.2500 119.5000 Du        
  13438 ****       125.0000 146.2500 119.7500 Du        
  13439 ****       125.0000 146.2500 120.0000 Du        
  13440 ****       125.0000 146.5000 118.2500 Du        
  13441 ****       125.0000 146.5000 118.5000 Du        
  13442 ****       125.0000 146.5000 118.7500 Du        
  13443 ****       125.0000 146.5000 119.0000 Du        
  13444 ****       125.0000 146.5000 119.2500 Du        
  13445 ****       125.0000 146.7500 118.2500 Du        
  13446 ****       125.0000 146.7500 118.5000 Du        
  13447 ****       125.0000 146.7500 118.7500 Du        
  13448 ****       125.0000 146.7500 119.0000 Du        
  13449 ****       125.0000 146.7500 119.2500 Du        
  13450 ****       125.0000 147.0000 118.7500 Du        
  13451 ****       125.0000 147.0000 119.0000 Du        
  13452 ****       125.0000 147.0000 119.2500 Du        
  13453 ****       125.0000 153.7500 156.7500 Du        
  13454 ****       125.0000 153.7500 157.0000 Du        
  13455 ****       125.0000 153.7500 157.2500 Du        
  13456 ****       125.0000 153.7500 157.5000 Du        
  13457 ****       125.0000 154.0000 156.7500 Du        
  13458 ****       125.0000 154.0000 157.0000 Du        
  13459 ****       125.0000 154.0000 157.2500 Du        
  13460 ****       125.0000 154.0000 157.5000 Du        
  13461 ****       125.0000 154.0000 157.7500 Du        
  13462 ****       125.0000 154.0000 158.0000 Du        
  13463 ****       125.0000 154.2500 157.0000 Du        
  13464 ****       125.0000 154.2500 157.2500 Du        
  13465 ****       125.0000 154.2500 157.5000 Du        
  13466 ****       125.0000 154.2500 157.7500 Du        
  13467 ****       125.0000 154.2500 158.0000 Du        
  13468 ****       125.0000 154.2500 158.2500 Du        
  13469 ****       125.0000 154.5000 157.0000 Du        
  13470 ****       125.0000 154.5000 157.2500 Du        
  13471 ****       125.0000 154.5000 157.5000 Du        
  13472 ****       125.0000 154.5000 157.7500 Du        
  13473 ****       125.0000 154.5000 158.0000 Du        
  13474 ****       125.0000 154.5000 158.2500 Du        
  13475 ****       125.0000 154.7500 157.2500 Du        
  13476 ****       125.0000 154.7500 157.5000 Du        
  13477 ****       125.0000 154.7500 157.7500 Du        
  13478 ****       125.0000 154.7500 158.0000 Du        
  13479 ****       125.0000 154.7500 158.2500 Du        
  13480 ****       125.0000 155.0000 157.2500 Du        
  13481 ****       125.0000 155.0000 157.5000 Du        
  13482 ****       125.0000 155.0000 157.7500 Du        
  13483 ****       125.0000 155.0000 158.0000 Du        
  13484 ****       125.0000 155.0000 158.2500 Du        
  13485 ****       125.0000 155.2500 157.5000 Du        
  13486 ****       125.0000 155.2500 157.7500 Du        
  13487 ****       125.0000 155.2500 158.0000 Du        
  13488 ****       125.0000 155.2500 158.2500 Du        
  13489 ****       125.0000 155.5000 157.7500 Du        
  13490 ****       125.0000 155.5000 158.0000 Du        
  13491 ****       125.0000 155.5000 158.2500 Du        
  13492 ****       125.0000 155.5000 158.5000 Du        
  13493 ****       125.0000 155.7500 157.7500 Du        
  13494 ****       125.0000 155.7500 158.0000 Du        
  13495 ****       125.0000 155.7500 158.2500 Du        
  13496 ****       125.0000 155.7500 158.5000 Du        
  13497 ****       125.0000 158.0000 104.5000 Du        
  13498 ****       125.0000 158.0000 104.7500 Du        
  13499 ****       125.0000 158.0000 105.0000 Du        
  13500 ****       125.0000 158.2500 104.0000 Du        
  13501 ****       125.0000 158.2500 104.2500 Du        
  13502 ****       125.0000 158.2500 104.5000 Du        
  13503 ****       125.0000 158.2500 104.7500 Du        
  13504 ****       125.0000 158.2500 105.0000 Du        
  13505 ****       125.0000 158.5000 104.0000 Du        
  13506 ****       125.0000 158.5000 104.2500 Du        
  13507 ****       125.0000 158.7500 103.7500 Du        
  13508 ****       125.0000 158.7500 104.0000 Du        
  13509 ****       125.0000 158.7500 104.2500 Du        
  13510 ****       125.0000 159.0000 103.7500 Du        
  13511 ****       125.2500 121.0000 164.2500 Du        
  13512 ****       125.2500 121.0000 164.5000 Du        
  13513 ****       125.2500 121.0000 164.7500 Du        
  13514 ****       125.2500 121.2500 164.2500 Du        
  13515 ****       125.2500 121.2500 164.5000 Du        
  13516 ****       125.2500 121.2500 164.7500 Du        
  13517 ****       125.2500 121.2500 165.0000 Du        
  13518 ****       125.2500 121.5000 164.5000 Du        
  13519 ****       125.2500 121.5000 164.7500 Du        
  13520 ****       125.2500 121.5000 165.0000 Du        
  13521 ****       125.2500 126.0000 100.7500 Du        
  13522 ****       125.2500 126.0000 101.0000 Du        
  13523 ****       125.2500 126.2500 100.0000 Du        
  13524 ****       125.2500 126.5000  99.5000 Du        
  13525 ****       125.2500 126.5000  99.7500 Du        
  13526 ****       125.2500 126.5000 100.0000 Du        
  13527 ****       125.2500 126.7500  99.5000 Du        
  13528 ****       125.2500 130.2500 163.0000 Du        
  13529 ****       125.2500 130.2500 163.2500 Du        
  13530 ****       125.2500 130.5000 163.0000 Du        
  13531 ****       125.2500 130.5000 163.2500 Du        
  13532 ****       125.2500 130.5000 163.5000 Du        
  13533 ****       125.2500 130.5000 163.7500 Du        
  13534 ****       125.2500 130.7500 162.7500 Du        
  13535 ****       125.2500 130.7500 163.0000 Du        
  13536 ****       125.2500 130.7500 163.2500 Du        
  13537 ****       125.2500 130.7500 163.5000 Du        
  13538 ****       125.2500 130.7500 163.7500 Du        
  13539 ****       125.2500 130.7500 164.0000 Du        
  13540 ****       125.2500 130.7500 164.2500 Du        
  13541 ****       125.2500 130.7500 164.5000 Du        
  13542 ****       125.2500 131.0000 162.5000 Du        
  13543 ****       125.2500 131.0000 162.7500 Du        
  13544 ****       125.2500 131.0000 163.0000 Du        
  13545 ****       125.2500 131.0000 163.2500 Du        
  13546 ****       125.2500 131.0000 163.5000 Du        
  13547 ****       125.2500 131.0000 163.7500 Du        
  13548 ****       125.2500 131.0000 164.0000 Du        
  13549 ****       125.2500 131.0000 164.2500 Du        
  13550 ****       125.2500 131.0000 164.5000 Du        
  13551 ****       125.2500 131.0000 164.7500 Du        
  13552 ****       125.2500 131.2500 162.5000 Du        
  13553 ****       125.2500 131.2500 162.7500 Du        
  13554 ****       125.2500 131.2500 163.0000 Du        
  13555 ****       125.2500 131.2500 163.2500 Du        
  13556 ****       125.2500 131.2500 163.5000 Du        
  13557 ****       125.2500 131.2500 163.7500 Du        
  13558 ****       125.2500 131.2500 164.0000 Du        
  13559 ****       125.2500 131.2500 164.2500 Du        
  13560 ****       125.2500 131.2500 164.5000 Du        
  13561 ****       125.2500 131.2500 164.7500 Du        
  13562 ****       125.2500 131.2500 165.0000 Du        
  13563 ****       125.2500 131.5000 162.7500 Du        
  13564 ****       125.2500 131.5000 163.0000 Du        
  13565 ****       125.2500 131.5000 163.2500 Du        
  13566 ****       125.2500 131.5000 163.5000 Du        
  13567 ****       125.2500 131.5000 163.7500 Du        
  13568 ****       125.2500 131.5000 164.0000 Du        
  13569 ****       125.2500 131.5000 164.2500 Du        
  13570 ****       125.2500 131.5000 164.5000 Du        
  13571 ****       125.2500 131.5000 164.7500 Du        
  13572 ****       125.2500 131.5000 165.0000 Du        
  13573 ****       125.2500 131.5000 165.2500 Du        
  13574 ****       125.2500 131.7500 162.5000 Du        
  13575 ****       125.2500 131.7500 162.7500 Du        
  13576 ****       125.2500 131.7500 163.0000 Du        
  13577 ****       125.2500 131.7500 163.2500 Du        
  13578 ****       125.2500 131.7500 163.5000 Du        
  13579 ****       125.2500 131.7500 163.7500 Du        
  13580 ****       125.2500 131.7500 164.0000 Du        
  13581 ****       125.2500 131.7500 164.2500 Du        
  13582 ****       125.2500 131.7500 164.5000 Du        
  13583 ****       125.2500 131.7500 164.7500 Du        
  13584 ****       125.2500 131.7500 165.0000 Du        
  13585 ****       125.2500 131.7500 165.2500 Du        
  13586 ****       125.2500 131.7500 165.5000 Du        
  13587 ****       125.2500 131.7500 165.7500 Du        
  13588 ****       125.2500 132.0000 162.5000 Du        
  13589 ****       125.2500 132.0000 162.7500 Du        
  13590 ****       125.2500 132.0000 163.0000 Du        
  13591 ****       125.2500 132.0000 163.2500 Du        
  13592 ****       125.2500 132.0000 163.5000 Du        
  13593 ****       125.2500 132.0000 163.7500 Du        
  13594 ****       125.2500 132.0000 164.0000 Du        
  13595 ****       125.2500 132.0000 164.2500 Du        
  13596 ****       125.2500 132.0000 164.5000 Du        
  13597 ****       125.2500 132.0000 164.7500 Du        
  13598 ****       125.2500 132.0000 165.0000 Du        
  13599 ****       125.2500 132.0000 165.2500 Du        
  13600 ****       125.2500 132.0000 165.5000 Du        
  13601 ****       125.2500 132.0000 165.7500 Du        
  13602 ****       125.2500 132.2500 162.2500 Du        
  13603 ****       125.2500 132.2500 162.7500 Du        
  13604 ****       125.2500 132.2500 163.0000 Du        
  13605 ****       125.2500 132.2500 163.2500 Du        
  13606 ****       125.2500 132.2500 163.5000 Du        
  13607 ****       125.2500 132.2500 163.7500 Du        
  13608 ****       125.2500 132.2500 164.0000 Du        
  13609 ****       125.2500 132.2500 164.2500 Du        
  13610 ****       125.2500 132.2500 164.5000 Du        
  13611 ****       125.2500 132.2500 164.7500 Du        
  13612 ****       125.2500 132.2500 165.0000 Du        
  13613 ****       125.2500 132.2500 165.2500 Du        
  13614 ****       125.2500 132.2500 165.5000 Du        
  13615 ****       125.2500 132.2500 165.7500 Du        
  13616 ****       125.2500 132.2500 166.0000 Du        
  13617 ****       125.2500 132.5000 161.7500 Du        
  13618 ****       125.2500 132.5000 162.5000 Du        
  13619 ****       125.2500 132.5000 162.7500 Du        
  13620 ****       125.2500 132.5000 163.0000 Du        
  13621 ****       125.2500 132.5000 163.2500 Du        
  13622 ****       125.2500 132.5000 163.5000 Du        
  13623 ****       125.2500 132.5000 163.7500 Du        
  13624 ****       125.2500 132.5000 164.0000 Du        
  13625 ****       125.2500 132.5000 164.2500 Du        
  13626 ****       125.2500 132.5000 164.5000 Du        
  13627 ****       125.2500 132.5000 164.7500 Du        
  13628 ****       125.2500 132.5000 165.0000 Du        
  13629 ****       125.2500 132.5000 165.2500 Du        
  13630 ****       125.2500 132.5000 165.5000 Du        
  13631 ****       125.2500 132.5000 165.7500 Du        
  13632 ****       125.2500 132.5000 166.0000 Du        
  13633 ****       125.2500 132.7500 161.5000 Du        
  13634 ****       125.2500 132.7500 161.7500 Du        
  13635 ****       125.2500 132.7500 162.0000 Du        
  13636 ****       125.2500 132.7500 162.2500 Du        
  13637 ****       125.2500 132.7500 162.5000 Du        
  13638 ****       125.2500 132.7500 162.7500 Du        
  13639 ****       125.2500 132.7500 163.0000 Du        
  13640 ****       125.2500 132.7500 163.2500 Du        
  13641 ****       125.2500 132.7500 163.5000 Du        
  13642 ****       125.2500 132.7500 163.7500 Du        
  13643 ****       125.2500 132.7500 164.0000 Du        
  13644 ****       125.2500 132.7500 164.2500 Du        
  13645 ****       125.2500 132.7500 164.5000 Du        
  13646 ****       125.2500 132.7500 164.7500 Du        
  13647 ****       125.2500 132.7500 165.0000 Du        
  13648 ****       125.2500 132.7500 165.2500 Du        
  13649 ****       125.2500 132.7500 165.5000 Du        
  13650 ****       125.2500 132.7500 165.7500 Du        
  13651 ****       125.2500 132.7500 166.0000 Du        
  13652 ****       125.2500 133.0000 161.0000 Du        
  13653 ****       125.2500 133.0000 161.2500 Du        
  13654 ****       125.2500 133.0000 161.5000 Du        
  13655 ****       125.2500 133.0000 161.7500 Du        
  13656 ****       125.2500 133.0000 162.0000 Du        
  13657 ****       125.2500 133.0000 163.2500 Du        
  13658 ****       125.2500 133.0000 163.5000 Du        
  13659 ****       125.2500 133.0000 163.7500 Du        
  13660 ****       125.2500 133.0000 164.0000 Du        
  13661 ****       125.2500 133.0000 164.2500 Du        
  13662 ****       125.2500 133.0000 164.5000 Du        
  13663 ****       125.2500 133.0000 164.7500 Du        
  13664 ****       125.2500 133.0000 165.0000 Du        
  13665 ****       125.2500 133.0000 165.2500 Du        
  13666 ****       125.2500 133.0000 165.5000 Du        
  13667 ****       125.2500 133.0000 165.7500 Du        
  13668 ****       125.2500 133.0000 166.0000 Du        
  13669 ****       125.2500 133.2500 161.0000 Du        
  13670 ****       125.2500 133.2500 164.0000 Du        
  13671 ****       125.2500 133.2500 164.2500 Du        
  13672 ****       125.2500 133.2500 164.5000 Du        
  13673 ****       125.2500 133.2500 164.7500 Du        
  13674 ****       125.2500 133.2500 165.0000 Du        
  13675 ****       125.2500 133.2500 165.2500 Du        
  13676 ****       125.2500 133.2500 165.5000 Du        
  13677 ****       125.2500 133.2500 165.7500 Du        
  13678 ****       125.2500 133.2500 166.0000 Du        
  13679 ****       125.2500 133.5000 164.5000 Du        
  13680 ****       125.2500 133.5000 164.7500 Du        
  13681 ****       125.2500 133.5000 165.0000 Du        
  13682 ****       125.2500 133.5000 165.2500 Du        
  13683 ****       125.2500 133.5000 165.5000 Du        
  13684 ****       125.2500 133.5000 165.7500 Du        
  13685 ****       125.2500 133.5000 166.0000 Du        
  13686 ****       125.2500 133.7500 141.2500 Du        
  13687 ****       125.2500 133.7500 165.0000 Du        
  13688 ****       125.2500 133.7500 165.2500 Du        
  13689 ****       125.2500 133.7500 165.5000 Du        
  13690 ****       125.2500 133.7500 165.7500 Du        
  13691 ****       125.2500 134.0000 141.0000 Du        
  13692 ****       125.2500 134.0000 141.2500 Du        
  13693 ****       125.2500 134.0000 141.5000 Du        
  13694 ****       125.2500 134.0000 165.2500 Du        
  13695 ****       125.2500 134.0000 165.5000 Du        
  13696 ****       125.2500 134.2500 141.2500 Du        
  13697 ****       125.2500 134.7500 156.0000 Du        
  13698 ****       125.2500 134.7500 156.2500 Du        
  13699 ****       125.2500 134.7500 156.5000 Du        
  13700 ****       125.2500 134.7500 156.7500 Du        
  13701 ****       125.2500 134.7500 157.0000 Du        
  13702 ****       125.2500 135.0000 156.0000 Du        
  13703 ****       125.2500 135.0000 156.2500 Du        
  13704 ****       125.2500 135.0000 156.5000 Du        
  13705 ****       125.2500 135.0000 156.7500 Du        
  13706 ****       125.2500 135.0000 157.0000 Du        
  13707 ****       125.2500 135.2500 156.0000 Du        
  13708 ****       125.2500 135.2500 156.2500 Du        
  13709 ****       125.2500 135.2500 156.5000 Du        
  13710 ****       125.2500 135.2500 156.7500 Du        
  13711 ****       125.2500 135.5000 156.0000 Du        
  13712 ****       125.2500 135.5000 156.2500 Du        
  13713 ****       125.2500 135.5000 156.5000 Du        
  13714 ****       125.2500 135.7500 156.0000 Du        
  13715 ****       125.2500 137.0000  95.2500 Du        
  13716 ****       125.2500 137.0000  95.5000 Du        
  13717 ****       125.2500 137.2500  95.0000 Du        
  13718 ****       125.2500 137.2500  95.2500 Du        
  13719 ****       125.2500 137.2500  95.5000 Du        
  13720 ****       125.2500 137.2500  95.7500 Du        
  13721 ****       125.2500 137.5000  94.7500 Du        
  13722 ****       125.2500 137.5000  95.0000 Du        
  13723 ****       125.2500 137.5000  95.2500 Du        
  13724 ****       125.2500 137.5000  95.5000 Du        
  13725 ****       125.2500 137.5000  95.7500 Du        
  13726 ****       125.2500 137.5000  96.0000 Du        
  13727 ****       125.2500 137.7500  94.5000 Du        
  13728 ****       125.2500 137.7500  94.7500 Du        
  13729 ****       125.2500 137.7500  95.0000 Du        
  13730 ****       125.2500 137.7500  95.2500 Du        
  13731 ****       125.2500 137.7500  95.5000 Du        
  13732 ****       125.2500 137.7500  95.7500 Du        
  13733 ****       125.2500 137.7500  96.0000 Du        
  13734 ****       125.2500 137.7500  96.2500 Du        
  13735 ****       125.2500 138.0000  94.0000 Du        
  13736 ****       125.2500 138.0000  94.2500 Du        
  13737 ****       125.2500 138.0000  94.5000 Du        
  13738 ****       125.2500 138.0000  94.7500 Du        
  13739 ****       125.2500 138.0000  95.0000 Du        
  13740 ****       125.2500 138.0000  95.2500 Du        
  13741 ****       125.2500 138.0000  95.5000 Du        
  13742 ****       125.2500 138.0000  95.7500 Du        
  13743 ****       125.2500 138.0000  96.0000 Du        
  13744 ****       125.2500 138.0000  96.2500 Du        
  13745 ****       125.2500 138.0000  96.5000 Du        
  13746 ****       125.2500 138.2500  93.0000 Du        
  13747 ****       125.2500 138.2500  93.2500 Du        
  13748 ****       125.2500 138.2500  93.5000 Du        
  13749 ****       125.2500 138.2500  93.7500 Du        
  13750 ****       125.2500 138.2500  94.0000 Du        
  13751 ****       125.2500 138.2500  94.2500 Du        
  13752 ****       125.2500 138.2500  94.5000 Du        
  13753 ****       125.2500 138.2500  94.7500 Du        
  13754 ****       125.2500 138.2500  95.0000 Du        
  13755 ****       125.2500 138.2500  95.2500 Du        
  13756 ****       125.2500 138.2500  95.5000 Du        
  13757 ****       125.2500 138.2500  95.7500 Du        
  13758 ****       125.2500 138.2500  96.0000 Du        
  13759 ****       125.2500 138.2500  96.2500 Du        
  13760 ****       125.2500 138.2500  96.5000 Du        
  13761 ****       125.2500 138.2500  96.7500 Du        
  13762 ****       125.2500 138.5000  92.2500 Du        
  13763 ****       125.2500 138.5000  92.5000 Du        
  13764 ****       125.2500 138.5000  92.7500 Du        
  13765 ****       125.2500 138.5000  93.0000 Du        
  13766 ****       125.2500 138.5000  93.2500 Du        
  13767 ****       125.2500 138.5000  93.5000 Du        
  13768 ****       125.2500 138.5000  93.7500 Du        
  13769 ****       125.2500 138.5000  94.0000 Du        
  13770 ****       125.2500 138.5000  94.2500 Du        
  13771 ****       125.2500 138.5000  94.5000 Du        
  13772 ****       125.2500 138.5000  94.7500 Du        
  13773 ****       125.2500 138.5000  95.0000 Du        
  13774 ****       125.2500 138.5000  95.2500 Du        
  13775 ****       125.2500 138.5000  95.5000 Du        
  13776 ****       125.2500 138.5000  95.7500 Du        
  13777 ****       125.2500 138.5000  96.0000 Du        
  13778 ****       125.2500 138.5000  96.2500 Du        
  13779 ****       125.2500 138.5000  96.5000 Du        
  13780 ****       125.2500 138.5000  96.7500 Du        
  13781 ****       125.2500 138.7500  92.2500 Du        
  13782 ****       125.2500 138.7500  92.5000 Du        
  13783 ****       125.2500 138.7500  92.7500 Du        
  13784 ****       125.2500 138.7500  93.0000 Du        
  13785 ****       125.2500 138.7500  93.2500 Du        
  13786 ****       125.2500 138.7500  93.5000 Du        
  13787 ****       125.2500 138.7500  93.7500 Du        
  13788 ****       125.2500 138.7500  94.0000 Du        
  13789 ****       125.2500 138.7500  94.2500 Du        
  13790 ****       125.2500 138.7500  94.5000 Du        
  13791 ****       125.2500 138.7500  94.7500 Du        
  13792 ****       125.2500 138.7500  95.0000 Du        
  13793 ****       125.2500 138.7500  95.2500 Du        
  13794 ****       125.2500 138.7500  95.5000 Du        
  13795 ****       125.2500 138.7500  95.7500 Du        
  13796 ****       125.2500 138.7500  96.0000 Du        
  13797 ****       125.2500 138.7500  96.2500 Du        
  13798 ****       125.2500 138.7500  96.5000 Du        
  13799 ****       125.2500 138.7500  96.7500 Du        
  13800 ****       125.2500 138.7500  97.0000 Du        
  13801 ****       125.2500 139.0000  92.2500 Du        
  13802 ****       125.2500 139.0000  92.5000 Du        
  13803 ****       125.2500 139.0000  92.7500 Du        
  13804 ****       125.2500 139.0000  93.0000 Du        
  13805 ****       125.2500 139.0000  93.2500 Du        
  13806 ****       125.2500 139.0000  93.5000 Du        
  13807 ****       125.2500 139.0000  93.7500 Du        
  13808 ****       125.2500 139.0000  94.0000 Du        
  13809 ****       125.2500 139.0000  94.2500 Du        
  13810 ****       125.2500 139.0000  94.5000 Du        
  13811 ****       125.2500 139.0000  94.7500 Du        
  13812 ****       125.2500 139.0000  95.0000 Du        
  13813 ****       125.2500 139.0000  95.2500 Du        
  13814 ****       125.2500 139.0000  95.5000 Du        
  13815 ****       125.2500 139.0000  95.7500 Du        
  13816 ****       125.2500 139.0000  96.0000 Du        
  13817 ****       125.2500 139.0000  96.2500 Du        
  13818 ****       125.2500 139.0000  96.5000 Du        
  13819 ****       125.2500 139.0000  96.7500 Du        
  13820 ****       125.2500 139.0000  97.0000 Du        
  13821 ****       125.2500 139.2500  86.5000 Du        
  13822 ****       125.2500 139.2500  86.7500 Du        
  13823 ****       125.2500 139.2500  94.5000 Du        
  13824 ****       125.2500 139.2500  94.7500 Du        
  13825 ****       125.2500 139.2500  95.0000 Du        
  13826 ****       125.2500 139.2500  95.2500 Du        
  13827 ****       125.2500 139.2500  95.5000 Du        
  13828 ****       125.2500 139.2500  95.7500 Du        
  13829 ****       125.2500 139.2500  96.0000 Du        
  13830 ****       125.2500 139.2500  96.2500 Du        
  13831 ****       125.2500 139.2500  96.5000 Du        
  13832 ****       125.2500 139.2500  96.7500 Du        
  13833 ****       125.2500 139.2500  97.0000 Du        
  13834 ****       125.2500 139.2500  97.2500 Du        
  13835 ****       125.2500 139.5000  95.2500 Du        
  13836 ****       125.2500 139.5000  95.5000 Du        
  13837 ****       125.2500 139.5000  95.7500 Du        
  13838 ****       125.2500 139.5000  96.0000 Du        
  13839 ****       125.2500 139.5000  96.2500 Du        
  13840 ****       125.2500 139.5000  96.5000 Du        
  13841 ****       125.2500 139.5000  96.7500 Du        
  13842 ****       125.2500 139.5000  97.0000 Du        
  13843 ****       125.2500 139.5000  97.2500 Du        
  13844 ****       125.2500 139.5000  97.5000 Du        
  13845 ****       125.2500 139.7500  95.7500 Du        
  13846 ****       125.2500 139.7500  96.0000 Du        
  13847 ****       125.2500 139.7500  96.2500 Du        
  13848 ****       125.2500 139.7500  96.5000 Du        
  13849 ****       125.2500 139.7500  96.7500 Du        
  13850 ****       125.2500 139.7500  97.0000 Du        
  13851 ****       125.2500 139.7500  97.2500 Du        
  13852 ****       125.2500 139.7500  97.5000 Du        
  13853 ****       125.2500 140.0000  96.0000 Du        
  13854 ****       125.2500 140.0000  96.2500 Du        
  13855 ****       125.2500 140.0000  96.5000 Du        
  13856 ****       125.2500 140.0000  96.7500 Du        
  13857 ****       125.2500 140.0000  97.0000 Du        
  13858 ****       125.2500 140.0000  97.2500 Du        
  13859 ****       125.2500 140.0000  97.5000 Du        
  13860 ****       125.2500 140.0000  97.7500 Du        
  13861 ****       125.2500 140.2500  96.0000 Du        
  13862 ****       125.2500 140.2500  96.2500 Du        
  13863 ****       125.2500 140.2500  96.5000 Du        
  13864 ****       125.2500 140.2500  96.7500 Du        
  13865 ****       125.2500 140.2500  97.0000 Du        
  13866 ****       125.2500 140.2500  97.2500 Du        
  13867 ****       125.2500 140.2500  97.5000 Du        
  13868 ****       125.2500 140.2500  97.7500 Du        
  13869 ****       125.2500 140.2500  98.0000 Du        
  13870 ****       125.2500 140.5000  96.2500 Du        
  13871 ****       125.2500 140.5000  96.5000 Du        
  13872 ****       125.2500 140.5000  96.7500 Du        
  13873 ****       125.2500 140.5000  97.0000 Du        
  13874 ****       125.2500 140.5000  97.2500 Du        
  13875 ****       125.2500 140.5000  97.5000 Du        
  13876 ****       125.2500 140.5000  97.7500 Du        
  13877 ****       125.2500 140.5000  98.0000 Du        
  13878 ****       125.2500 140.5000  98.2500 Du        
  13879 ****       125.2500 140.7500  96.2500 Du        
  13880 ****       125.2500 140.7500  96.5000 Du        
  13881 ****       125.2500 140.7500  96.7500 Du        
  13882 ****       125.2500 140.7500  97.0000 Du        
  13883 ****       125.2500 140.7500  97.2500 Du        
  13884 ****       125.2500 140.7500  97.5000 Du        
  13885 ****       125.2500 140.7500  97.7500 Du        
  13886 ****       125.2500 140.7500  98.0000 Du        
  13887 ****       125.2500 140.7500  98.2500 Du        
  13888 ****       125.2500 140.7500  98.5000 Du        
  13889 ****       125.2500 141.0000  96.2500 Du        
  13890 ****       125.2500 141.0000  96.5000 Du        
  13891 ****       125.2500 141.0000  96.7500 Du        
  13892 ****       125.2500 141.0000  97.0000 Du        
  13893 ****       125.2500 141.0000  97.2500 Du        
  13894 ****       125.2500 141.0000  97.5000 Du        
  13895 ****       125.2500 141.0000  97.7500 Du        
  13896 ****       125.2500 141.0000  98.0000 Du        
  13897 ****       125.2500 141.0000  98.2500 Du        
  13898 ****       125.2500 141.0000  98.5000 Du        
  13899 ****       125.2500 141.2500  96.5000 Du        
  13900 ****       125.2500 141.2500  96.7500 Du        
  13901 ****       125.2500 141.2500  97.0000 Du        
  13902 ****       125.2500 141.2500  97.2500 Du        
  13903 ****       125.2500 141.2500  97.5000 Du        
  13904 ****       125.2500 141.2500  97.7500 Du        
  13905 ****       125.2500 141.2500  98.0000 Du        
  13906 ****       125.2500 141.2500  98.2500 Du        
  13907 ****       125.2500 141.5000  96.5000 Du        
  13908 ****       125.2500 141.5000  96.7500 Du        
  13909 ****       125.2500 141.5000  97.0000 Du        
  13910 ****       125.2500 141.5000  97.2500 Du        
  13911 ****       125.2500 141.5000  97.5000 Du        
  13912 ****       125.2500 143.0000 149.5000 Du        
  13913 ****       125.2500 143.0000 149.7500 Du        
  13914 ****       125.2500 143.2500 149.5000 Du        
  13915 ****       125.2500 143.2500 149.7500 Du        
  13916 ****       125.2500 143.2500 150.0000 Du        
  13917 ****       125.2500 143.5000 149.5000 Du        
  13918 ****       125.2500 143.5000 149.7500 Du        
  13919 ****       125.2500 143.5000 150.0000 Du        
  13920 ****       125.2500 143.7500 149.2500 Du        
  13921 ****       125.2500 143.7500 149.5000 Du        
  13922 ****       125.2500 143.7500 149.7500 Du        
  13923 ****       125.2500 143.7500 150.0000 Du        
  13924 ****       125.2500 144.0000 149.0000 Du        
  13925 ****       125.2500 144.0000 149.2500 Du        
  13926 ****       125.2500 144.0000 149.5000 Du        
  13927 ****       125.2500 144.0000 149.7500 Du        
  13928 ****       125.2500 144.2500 149.5000 Du        
  13929 ****       125.2500 144.5000 122.0000 Du        
  13930 ****       125.2500 144.5000 122.2500 Du        
  13931 ****       125.2500 144.7500 121.5000 Du        
  13932 ****       125.2500 144.7500 121.7500 Du        
  13933 ****       125.2500 144.7500 122.0000 Du        
  13934 ****       125.2500 144.7500 122.2500 Du        
  13935 ****       125.2500 145.0000 119.5000 Du        
  13936 ****       125.2500 145.0000 119.7500 Du        
  13937 ****       125.2500 145.0000 120.0000 Du        
  13938 ****       125.2500 145.0000 120.2500 Du        
  13939 ****       125.2500 145.0000 120.5000 Du        
  13940 ****       125.2500 145.0000 120.7500 Du        
  13941 ****       125.2500 145.0000 121.0000 Du        
  13942 ****       125.2500 145.0000 121.2500 Du        
  13943 ****       125.2500 145.0000 121.5000 Du        
  13944 ****       125.2500 145.0000 121.7500 Du        
  13945 ****       125.2500 145.0000 122.0000 Du        
  13946 ****       125.2500 145.0000 122.2500 Du        
  13947 ****       125.2500 145.2500 119.0000 Du        
  13948 ****       125.2500 145.2500 119.2500 Du        
  13949 ****       125.2500 145.2500 119.5000 Du        
  13950 ****       125.2500 145.2500 119.7500 Du        
  13951 ****       125.2500 145.2500 120.0000 Du        
  13952 ****       125.2500 145.2500 120.2500 Du        
  13953 ****       125.2500 145.2500 120.5000 Du        
  13954 ****       125.2500 145.2500 120.7500 Du        
  13955 ****       125.2500 145.2500 121.0000 Du        
  13956 ****       125.2500 145.2500 121.2500 Du        
  13957 ****       125.2500 145.2500 121.5000 Du        
  13958 ****       125.2500 145.2500 121.7500 Du        
  13959 ****       125.2500 145.2500 122.0000 Du        
  13960 ****       125.2500 145.5000 119.0000 Du        
  13961 ****       125.2500 145.5000 119.2500 Du        
  13962 ****       125.2500 145.5000 119.5000 Du        
  13963 ****       125.2500 145.5000 119.7500 Du        
  13964 ****       125.2500 145.5000 120.0000 Du        
  13965 ****       125.2500 145.5000 120.2500 Du        
  13966 ****       125.2500 145.5000 120.5000 Du        
  13967 ****       125.2500 145.5000 120.7500 Du        
  13968 ****       125.2500 145.5000 121.0000 Du        
  13969 ****       125.2500 145.7500 118.7500 Du        
  13970 ****       125.2500 145.7500 119.0000 Du        
  13971 ****       125.2500 145.7500 119.2500 Du        
  13972 ****       125.2500 145.7500 119.5000 Du        
  13973 ****       125.2500 145.7500 119.7500 Du        
  13974 ****       125.2500 145.7500 120.0000 Du        
  13975 ****       125.2500 145.7500 120.2500 Du        
  13976 ****       125.2500 145.7500 120.5000 Du        
  13977 ****       125.2500 145.7500 120.7500 Du        
  13978 ****       125.2500 146.0000 118.2500 Du        
  13979 ****       125.2500 146.0000 118.5000 Du        
  13980 ****       125.2500 146.0000 118.7500 Du        
  13981 ****       125.2500 146.0000 119.0000 Du        
  13982 ****       125.2500 146.0000 119.2500 Du        
  13983 ****       125.2500 146.0000 119.5000 Du        
  13984 ****       125.2500 146.0000 119.7500 Du        
  13985 ****       125.2500 146.0000 120.0000 Du        
  13986 ****       125.2500 146.0000 120.2500 Du        
  13987 ****       125.2500 146.2500 118.2500 Du        
  13988 ****       125.2500 146.2500 118.5000 Du        
  13989 ****       125.2500 146.2500 118.7500 Du        
  13990 ****       125.2500 146.2500 119.0000 Du        
  13991 ****       125.2500 146.2500 119.2500 Du        
  13992 ****       125.2500 146.2500 119.5000 Du        
  13993 ****       125.2500 146.2500 119.7500 Du        
  13994 ****       125.2500 146.2500 120.0000 Du        
  13995 ****       125.2500 146.2500 120.2500 Du        
  13996 ****       125.2500 146.5000 118.2500 Du        
  13997 ****       125.2500 146.5000 118.5000 Du        
  13998 ****       125.2500 146.5000 118.7500 Du        
  13999 ****       125.2500 146.5000 119.0000 Du        
  14000 ****       125.2500 146.5000 119.2500 Du        
  14001 ****       125.2500 146.5000 119.5000 Du        
  14002 ****       125.2500 146.7500 118.5000 Du        
  14003 ****       125.2500 146.7500 118.7500 Du        
  14004 ****       125.2500 146.7500 119.0000 Du        
  14005 ****       125.2500 146.7500 119.2500 Du        
  14006 ****       125.2500 147.0000 118.7500 Du        
  14007 ****       125.2500 147.0000 119.0000 Du        
  14008 ****       125.2500 147.0000 119.2500 Du        
  14009 ****       125.2500 147.2500 119.0000 Du        
  14010 ****       125.2500 154.0000 157.0000 Du        
  14011 ****       125.2500 154.0000 157.2500 Du        
  14012 ****       125.2500 154.0000 157.5000 Du        
  14013 ****       125.2500 154.0000 157.7500 Du        
  14014 ****       125.2500 154.0000 158.0000 Du        
  14015 ****       125.2500 154.2500 157.0000 Du        
  14016 ****       125.2500 154.2500 157.2500 Du        
  14017 ****       125.2500 154.2500 157.5000 Du        
  14018 ****       125.2500 154.2500 157.7500 Du        
  14019 ****       125.2500 154.2500 158.0000 Du        
  14020 ****       125.2500 154.2500 158.2500 Du        
  14021 ****       125.2500 154.5000 157.2500 Du        
  14022 ****       125.2500 154.5000 157.5000 Du        
  14023 ****       125.2500 154.5000 157.7500 Du        
  14024 ****       125.2500 154.5000 158.0000 Du        
  14025 ****       125.2500 154.5000 158.2500 Du        
  14026 ****       125.2500 154.7500 157.2500 Du        
  14027 ****       125.2500 154.7500 157.5000 Du        
  14028 ****       125.2500 154.7500 157.7500 Du        
  14029 ****       125.2500 154.7500 158.0000 Du        
  14030 ****       125.2500 154.7500 158.2500 Du        
  14031 ****       125.2500 155.0000 157.5000 Du        
  14032 ****       125.2500 155.0000 157.7500 Du        
  14033 ****       125.2500 155.0000 158.0000 Du        
  14034 ****       125.2500 155.0000 158.2500 Du        
  14035 ****       125.2500 155.0000 158.5000 Du        
  14036 ****       125.2500 155.2500 157.7500 Du        
  14037 ****       125.2500 155.2500 158.0000 Du        
  14038 ****       125.2500 155.2500 158.2500 Du        
  14039 ****       125.2500 155.2500 158.5000 Du        
  14040 ****       125.2500 155.5000 157.7500 Du        
  14041 ****       125.2500 155.5000 158.0000 Du        
  14042 ****       125.2500 155.5000 158.2500 Du        
  14043 ****       125.2500 155.5000 158.5000 Du        
  14044 ****       125.2500 155.5000 158.7500 Du        
  14045 ****       125.2500 155.7500 158.0000 Du        
  14046 ****       125.2500 155.7500 158.2500 Du        
  14047 ****       125.2500 155.7500 158.5000 Du        
  14048 ****       125.2500 155.7500 158.7500 Du        
  14049 ****       125.2500 156.0000 158.0000 Du        
  14050 ****       125.2500 156.0000 158.2500 Du        
  14051 ****       125.2500 156.0000 158.5000 Du        
  14052 ****       125.2500 156.0000 158.7500 Du        
  14053 ****       125.2500 156.0000 159.0000 Du        
  14054 ****       125.2500 156.2500 158.2500 Du        
  14055 ****       125.2500 156.2500 158.5000 Du        
  14056 ****       125.2500 156.2500 158.7500 Du        
  14057 ****       125.2500 158.0000 104.2500 Du        
  14058 ****       125.2500 158.2500 104.0000 Du        
  14059 ****       125.2500 158.2500 104.2500 Du        
  14060 ****       125.2500 158.2500 104.5000 Du        
  14061 ****       125.2500 158.5000 103.7500 Du        
  14062 ****       125.2500 158.5000 104.0000 Du        
  14063 ****       125.2500 158.5000 104.2500 Du        
  14064 ****       125.2500 158.7500 103.5000 Du        
  14065 ****       125.2500 158.7500 103.7500 Du        
  14066 ****       125.2500 158.7500 104.0000 Du        
  14067 ****       125.2500 158.7500 104.2500 Du        
  14068 ****       125.2500 159.0000 103.5000 Du        
  14069 ****       125.2500 159.0000 103.7500 Du        
  14070 ****       125.2500 159.0000 104.0000 Du        
  14071 ****       125.5000 121.0000 157.0000 Du        
  14072 ****       125.5000 121.0000 157.2500 Du        
  14073 ****       125.5000 121.0000 157.5000 Du        
  14074 ****       125.5000 121.0000 164.2500 Du        
  14075 ****       125.5000 121.0000 164.5000 Du        
  14076 ****       125.5000 121.0000 164.7500 Du        
  14077 ****       125.5000 121.2500 156.7500 Du        
  14078 ****       125.5000 121.2500 157.0000 Du        
  14079 ****       125.5000 121.2500 157.2500 Du        
  14080 ****       125.5000 121.2500 157.5000 Du        
  14081 ****       125.5000 121.2500 157.7500 Du        
  14082 ****       125.5000 121.2500 164.2500 Du        
  14083 ****       125.5000 121.2500 164.5000 Du        
  14084 ****       125.5000 121.2500 164.7500 Du        
  14085 ****       125.5000 121.2500 165.0000 Du        
  14086 ****       125.5000 121.5000 157.0000 Du        
  14087 ****       125.5000 121.5000 157.5000 Du        
  14088 ****       125.5000 121.5000 164.2500 Du        
  14089 ****       125.5000 121.5000 164.5000 Du        
  14090 ****       125.5000 121.5000 164.7500 Du        
  14091 ****       125.5000 121.5000 165.0000 Du        
  14092 ****       125.5000 121.5000 165.2500 Du        
  14093 ****       125.5000 121.7500 157.5000 Du        
  14094 ****       125.5000 121.7500 164.5000 Du        
  14095 ****       125.5000 121.7500 164.7500 Du        
  14096 ****       125.5000 121.7500 165.0000 Du        
  14097 ****       125.5000 130.2500 162.7500 Du        
  14098 ****       125.5000 130.2500 163.0000 Du        
  14099 ****       125.5000 130.2500 163.5000 Du        
  14100 ****       125.5000 130.5000 162.7500 Du        
  14101 ****       125.5000 130.5000 163.0000 Du        
  14102 ****       125.5000 130.5000 163.2500 Du        
  14103 ****       125.5000 130.5000 163.5000 Du        
  14104 ****       125.5000 130.5000 163.7500 Du        
  14105 ****       125.5000 130.5000 164.0000 Du        
  14106 ****       125.5000 130.7500 163.0000 Du        
  14107 ****       125.5000 130.7500 163.2500 Du        
  14108 ****       125.5000 130.7500 163.5000 Du        
  14109 ****       125.5000 130.7500 163.7500 Du        
  14110 ****       125.5000 130.7500 164.0000 Du        
  14111 ****       125.5000 130.7500 164.2500 Du        
  14112 ****       125.5000 130.7500 164.5000 Du        
  14113 ****       125.5000 131.0000 162.7500 Du        
  14114 ****       125.5000 131.0000 163.0000 Du        
  14115 ****       125.5000 131.0000 163.2500 Du        
  14116 ****       125.5000 131.0000 163.5000 Du        
  14117 ****       125.5000 131.0000 163.7500 Du        
  14118 ****       125.5000 131.0000 164.0000 Du        
  14119 ****       125.5000 131.0000 164.2500 Du        
  14120 ****       125.5000 131.0000 164.5000 Du        
  14121 ****       125.5000 131.0000 164.7500 Du        
  14122 ****       125.5000 131.2500 162.7500 Du        
  14123 ****       125.5000 131.2500 163.0000 Du        
  14124 ****       125.5000 131.2500 163.2500 Du        
  14125 ****       125.5000 131.2500 163.5000 Du        
  14126 ****       125.5000 131.2500 163.7500 Du        
  14127 ****       125.5000 131.2500 164.0000 Du        
  14128 ****       125.5000 131.2500 164.2500 Du        
  14129 ****       125.5000 131.2500 164.5000 Du        
  14130 ****       125.5000 131.2500 164.7500 Du        
  14131 ****       125.5000 131.2500 165.0000 Du        
  14132 ****       125.5000 131.5000 162.7500 Du        
  14133 ****       125.5000 131.5000 163.0000 Du        
  14134 ****       125.5000 131.5000 163.2500 Du        
  14135 ****       125.5000 131.5000 163.5000 Du        
  14136 ****       125.5000 131.5000 163.7500 Du        
  14137 ****       125.5000 131.5000 164.0000 Du        
  14138 ****       125.5000 131.5000 164.2500 Du        
  14139 ****       125.5000 131.5000 164.5000 Du        
  14140 ****       125.5000 131.5000 164.7500 Du        
  14141 ****       125.5000 131.5000 165.0000 Du        
  14142 ****       125.5000 131.5000 165.2500 Du        
  14143 ****       125.5000 131.7500 162.5000 Du        
  14144 ****       125.5000 131.7500 162.7500 Du        
  14145 ****       125.5000 131.7500 163.0000 Du        
  14146 ****       125.5000 131.7500 163.2500 Du        
  14147 ****       125.5000 131.7500 163.5000 Du        
  14148 ****       125.5000 131.7500 163.7500 Du        
  14149 ****       125.5000 131.7500 164.0000 Du        
  14150 ****       125.5000 131.7500 164.2500 Du        
  14151 ****       125.5000 131.7500 164.5000 Du        
  14152 ****       125.5000 131.7500 164.7500 Du        
  14153 ****       125.5000 131.7500 165.0000 Du        
  14154 ****       125.5000 131.7500 165.2500 Du        
  14155 ****       125.5000 131.7500 165.5000 Du        
  14156 ****       125.5000 132.0000 162.5000 Du        
  14157 ****       125.5000 132.0000 162.7500 Du        
  14158 ****       125.5000 132.0000 163.0000 Du        
  14159 ****       125.5000 132.0000 163.2500 Du        
  14160 ****       125.5000 132.0000 163.5000 Du        
  14161 ****       125.5000 132.0000 163.7500 Du        
  14162 ****       125.5000 132.0000 164.0000 Du        
  14163 ****       125.5000 132.0000 164.2500 Du        
  14164 ****       125.5000 132.0000 164.5000 Du        
  14165 ****       125.5000 132.0000 164.7500 Du        
  14166 ****       125.5000 132.0000 165.0000 Du        
  14167 ****       125.5000 132.0000 165.2500 Du        
  14168 ****       125.5000 132.0000 165.5000 Du        
  14169 ****       125.5000 132.0000 165.7500 Du        
  14170 ****       125.5000 132.2500 161.7500 Du        
  14171 ****       125.5000 132.2500 162.0000 Du        
  14172 ****       125.5000 132.2500 162.2500 Du        
  14173 ****       125.5000 132.2500 162.5000 Du        
  14174 ****       125.5000 132.2500 162.7500 Du        
  14175 ****       125.5000 132.2500 163.0000 Du        
  14176 ****       125.5000 132.2500 163.2500 Du        
  14177 ****       125.5000 132.2500 163.5000 Du        
  14178 ****       125.5000 132.2500 163.7500 Du        
  14179 ****       125.5000 132.2500 164.0000 Du        
  14180 ****       125.5000 132.2500 164.2500 Du        
  14181 ****       125.5000 132.2500 164.5000 Du        
  14182 ****       125.5000 132.2500 164.7500 Du        
  14183 ****       125.5000 132.2500 165.0000 Du        
  14184 ****       125.5000 132.2500 165.2500 Du        
  14185 ****       125.5000 132.2500 165.5000 Du        
  14186 ****       125.5000 132.2500 165.7500 Du        
  14187 ****       125.5000 132.2500 166.0000 Du        
  14188 ****       125.5000 132.5000 161.2500 Du        
  14189 ****       125.5000 132.5000 161.5000 Du        
  14190 ****       125.5000 132.5000 161.7500 Du        
  14191 ****       125.5000 132.5000 162.0000 Du        
  14192 ****       125.5000 132.5000 162.5000 Du        
  14193 ****       125.5000 132.5000 162.7500 Du        
  14194 ****       125.5000 132.5000 163.0000 Du        
  14195 ****       125.5000 132.5000 163.2500 Du        
  14196 ****       125.5000 132.5000 163.5000 Du        
  14197 ****       125.5000 132.5000 163.7500 Du        
  14198 ****       125.5000 132.5000 164.0000 Du        
  14199 ****       125.5000 132.5000 164.2500 Du        
  14200 ****       125.5000 132.5000 164.5000 Du        
  14201 ****       125.5000 132.5000 164.7500 Du        
  14202 ****       125.5000 132.5000 165.0000 Du        
  14203 ****       125.5000 132.5000 165.2500 Du        
  14204 ****       125.5000 132.5000 165.5000 Du        
  14205 ****       125.5000 132.5000 165.7500 Du        
  14206 ****       125.5000 132.5000 166.0000 Du        
  14207 ****       125.5000 132.7500 160.7500 Du        
  14208 ****       125.5000 132.7500 161.0000 Du        
  14209 ****       125.5000 132.7500 161.2500 Du        
  14210 ****       125.5000 132.7500 161.5000 Du        
  14211 ****       125.5000 132.7500 161.7500 Du        
  14212 ****       125.5000 132.7500 162.0000 Du        
  14213 ****       125.5000 132.7500 162.2500 Du        
  14214 ****       125.5000 132.7500 162.5000 Du        
  14215 ****       125.5000 132.7500 162.7500 Du        
  14216 ****       125.5000 132.7500 163.0000 Du        
  14217 ****       125.5000 132.7500 163.2500 Du        
  14218 ****       125.5000 132.7500 163.5000 Du        
  14219 ****       125.5000 132.7500 163.7500 Du        
  14220 ****       125.5000 132.7500 164.0000 Du        
  14221 ****       125.5000 132.7500 164.2500 Du        
  14222 ****       125.5000 132.7500 164.5000 Du        
  14223 ****       125.5000 132.7500 164.7500 Du        
  14224 ****       125.5000 132.7500 165.0000 Du        
  14225 ****       125.5000 132.7500 165.2500 Du        
  14226 ****       125.5000 132.7500 165.5000 Du        
  14227 ****       125.5000 132.7500 165.7500 Du        
  14228 ****       125.5000 132.7500 166.0000 Du        
  14229 ****       125.5000 133.0000 160.5000 Du        
  14230 ****       125.5000 133.0000 160.7500 Du        
  14231 ****       125.5000 133.0000 161.0000 Du        
  14232 ****       125.5000 133.0000 161.2500 Du        
  14233 ****       125.5000 133.0000 161.5000 Du        
  14234 ****       125.5000 133.0000 161.7500 Du        
  14235 ****       125.5000 133.0000 162.0000 Du        
  14236 ****       125.5000 133.0000 162.2500 Du        
  14237 ****       125.5000 133.0000 162.5000 Du        
  14238 ****       125.5000 133.0000 162.7500 Du        
  14239 ****       125.5000 133.0000 163.0000 Du        
  14240 ****       125.5000 133.0000 163.2500 Du        
  14241 ****       125.5000 133.0000 163.5000 Du        
  14242 ****       125.5000 133.0000 163.7500 Du        
  14243 ****       125.5000 133.0000 164.0000 Du        
  14244 ****       125.5000 133.0000 164.2500 Du        
  14245 ****       125.5000 133.0000 164.5000 Du        
  14246 ****       125.5000 133.0000 164.7500 Du        
  14247 ****       125.5000 133.0000 165.0000 Du        
  14248 ****       125.5000 133.0000 165.2500 Du        
  14249 ****       125.5000 133.0000 165.5000 Du        
  14250 ****       125.5000 133.0000 165.7500 Du        
  14251 ****       125.5000 133.0000 166.0000 Du        
  14252 ****       125.5000 133.2500 160.5000 Du        
  14253 ****       125.5000 133.2500 160.7500 Du        
  14254 ****       125.5000 133.2500 161.0000 Du        
  14255 ****       125.5000 133.2500 161.2500 Du        
  14256 ****       125.5000 133.2500 161.5000 Du        
  14257 ****       125.5000 133.2500 161.7500 Du        
  14258 ****       125.5000 133.2500 162.0000 Du        
  14259 ****       125.5000 133.2500 163.7500 Du        
  14260 ****       125.5000 133.2500 164.0000 Du        
  14261 ****       125.5000 133.2500 164.2500 Du        
  14262 ****       125.5000 133.2500 164.5000 Du        
  14263 ****       125.5000 133.2500 164.7500 Du        
  14264 ****       125.5000 133.2500 165.0000 Du        
  14265 ****       125.5000 133.2500 165.2500 Du        
  14266 ****       125.5000 133.2500 165.5000 Du        
  14267 ****       125.5000 133.2500 165.7500 Du        
  14268 ****       125.5000 133.2500 166.0000 Du        
  14269 ****       125.5000 133.5000 160.2500 Du        
  14270 ****       125.5000 133.5000 160.5000 Du        
  14271 ****       125.5000 133.5000 160.7500 Du        
  14272 ****       125.5000 133.5000 161.0000 Du        
  14273 ****       125.5000 133.5000 161.2500 Du        
  14274 ****       125.5000 133.5000 161.5000 Du        
  14275 ****       125.5000 133.5000 164.5000 Du        
  14276 ****       125.5000 133.5000 164.7500 Du        
  14277 ****       125.5000 133.5000 165.0000 Du        
  14278 ****       125.5000 133.5000 165.2500 Du        
  14279 ****       125.5000 133.5000 165.5000 Du        
  14280 ****       125.5000 133.5000 165.7500 Du        
  14281 ****       125.5000 133.5000 166.0000 Du        
  14282 ****       125.5000 133.7500 160.0000 Du        
  14283 ****       125.5000 133.7500 160.5000 Du        
  14284 ****       125.5000 133.7500 164.7500 Du        
  14285 ****       125.5000 133.7500 165.0000 Du        
  14286 ****       125.5000 133.7500 165.2500 Du        
  14287 ****       125.5000 133.7500 165.5000 Du        
  14288 ****       125.5000 133.7500 165.7500 Du        
  14289 ****       125.5000 134.0000 165.5000 Du        
  14290 ****       125.5000 134.7500 156.2500 Du        
  14291 ****       125.5000 134.7500 156.5000 Du        
  14292 ****       125.5000 134.7500 156.7500 Du        
  14293 ****       125.5000 134.7500 157.0000 Du        
  14294 ****       125.5000 135.0000 156.0000 Du        
  14295 ****       125.5000 135.0000 156.2500 Du        
  14296 ****       125.5000 135.0000 156.5000 Du        
  14297 ****       125.5000 135.0000 156.7500 Du        
  14298 ****       125.5000 135.2500 156.2500 Du        
  14299 ****       125.5000 135.2500 156.5000 Du        
  14300 ****       125.5000 135.5000 156.2500 Du        
  14301 ****       125.5000 137.0000  95.2500 Du        
  14302 ****       125.5000 137.0000  95.5000 Du        
  14303 ****       125.5000 137.0000  95.7500 Du        
  14304 ****       125.5000 137.2500  95.0000 Du        
  14305 ****       125.5000 137.2500  95.2500 Du        
  14306 ****       125.5000 137.2500  95.5000 Du        
  14307 ****       125.5000 137.2500  95.7500 Du        
  14308 ****       125.5000 137.2500  96.0000 Du        
  14309 ****       125.5000 137.5000  94.7500 Du        
  14310 ****       125.5000 137.5000  95.0000 Du        
  14311 ****       125.5000 137.5000  95.2500 Du        
  14312 ****       125.5000 137.5000  95.5000 Du        
  14313 ****       125.5000 137.5000  95.7500 Du        
  14314 ****       125.5000 137.5000  96.0000 Du        
  14315 ****       125.5000 137.5000  96.2500 Du        
  14316 ****       125.5000 137.7500  94.5000 Du        
  14317 ****       125.5000 137.7500  94.7500 Du        
  14318 ****       125.5000 137.7500  95.0000 Du        
  14319 ****       125.5000 137.7500  95.2500 Du        
  14320 ****       125.5000 137.7500  95.5000 Du        
  14321 ****       125.5000 137.7500  95.7500 Du        
  14322 ****       125.5000 137.7500  96.0000 Du        
  14323 ****       125.5000 137.7500  96.2500 Du        
  14324 ****       125.5000 138.0000  94.0000 Du        
  14325 ****       125.5000 138.0000  94.2500 Du        
  14326 ****       125.5000 138.0000  94.5000 Du        
  14327 ****       125.5000 138.0000  94.7500 Du        
  14328 ****       125.5000 138.0000  95.0000 Du        
  14329 ****       125.5000 138.0000  95.2500 Du        
  14330 ****       125.5000 138.0000  95.5000 Du        
  14331 ****       125.5000 138.0000  95.7500 Du        
  14332 ****       125.5000 138.0000  96.0000 Du        
  14333 ****       125.5000 138.0000  96.2500 Du        
  14334 ****       125.5000 138.0000  96.5000 Du        
  14335 ****       125.5000 138.2500  93.2500 Du        
  14336 ****       125.5000 138.2500  93.5000 Du        
  14337 ****       125.5000 138.2500  93.7500 Du        
  14338 ****       125.5000 138.2500  94.0000 Du        
  14339 ****       125.5000 138.2500  94.2500 Du        
  14340 ****       125.5000 138.2500  94.5000 Du        
  14341 ****       125.5000 138.2500  94.7500 Du        
  14342 ****       125.5000 138.2500  95.0000 Du        
  14343 ****       125.5000 138.2500  95.2500 Du        
  14344 ****       125.5000 138.2500  95.5000 Du        
  14345 ****       125.5000 138.2500  95.7500 Du        
  14346 ****       125.5000 138.2500  96.0000 Du        
  14347 ****       125.5000 138.2500  96.2500 Du        
  14348 ****       125.5000 138.2500  96.5000 Du        
  14349 ****       125.5000 138.2500  96.7500 Du        
  14350 ****       125.5000 138.5000  92.2500 Du        
  14351 ****       125.5000 138.5000  92.5000 Du        
  14352 ****       125.5000 138.5000  92.7500 Du        
  14353 ****       125.5000 138.5000  93.0000 Du        
  14354 ****       125.5000 138.5000  93.2500 Du        
  14355 ****       125.5000 138.5000  93.5000 Du        
  14356 ****       125.5000 138.5000  93.7500 Du        
  14357 ****       125.5000 138.5000  94.0000 Du        
  14358 ****       125.5000 138.5000  94.2500 Du        
  14359 ****       125.5000 138.5000  94.5000 Du        
  14360 ****       125.5000 138.5000  94.7500 Du        
  14361 ****       125.5000 138.5000  95.0000 Du        
  14362 ****       125.5000 138.5000  95.2500 Du        
  14363 ****       125.5000 138.5000  95.5000 Du        
  14364 ****       125.5000 138.5000  95.7500 Du        
  14365 ****       125.5000 138.5000  96.0000 Du        
  14366 ****       125.5000 138.5000  96.2500 Du        
  14367 ****       125.5000 138.5000  96.5000 Du        
  14368 ****       125.5000 138.5000  96.7500 Du        
  14369 ****       125.5000 138.7500  92.0000 Du        
  14370 ****       125.5000 138.7500  92.2500 Du        
  14371 ****       125.5000 138.7500  92.5000 Du        
  14372 ****       125.5000 138.7500  92.7500 Du        
  14373 ****       125.5000 138.7500  93.0000 Du        
  14374 ****       125.5000 138.7500  93.2500 Du        
  14375 ****       125.5000 138.7500  93.5000 Du        
  14376 ****       125.5000 138.7500  93.7500 Du        
  14377 ****       125.5000 138.7500  94.0000 Du        
  14378 ****       125.5000 138.7500  94.2500 Du        
  14379 ****       125.5000 138.7500  94.5000 Du        
  14380 ****       125.5000 138.7500  94.7500 Du        
  14381 ****       125.5000 138.7500  95.0000 Du        
  14382 ****       125.5000 138.7500  95.2500 Du        
  14383 ****       125.5000 138.7500  95.5000 Du        
  14384 ****       125.5000 138.7500  95.7500 Du        
  14385 ****       125.5000 138.7500  96.0000 Du        
  14386 ****       125.5000 138.7500  96.2500 Du        
  14387 ****       125.5000 138.7500  96.5000 Du        
  14388 ****       125.5000 138.7500  96.7500 Du        
  14389 ****       125.5000 138.7500  97.0000 Du        
  14390 ****       125.5000 139.0000  92.0000 Du        
  14391 ****       125.5000 139.0000  92.2500 Du        
  14392 ****       125.5000 139.0000  92.5000 Du        
  14393 ****       125.5000 139.0000  92.7500 Du        
  14394 ****       125.5000 139.0000  93.0000 Du        
  14395 ****       125.5000 139.0000  93.2500 Du        
  14396 ****       125.5000 139.0000  93.5000 Du        
  14397 ****       125.5000 139.0000  93.7500 Du        
  14398 ****       125.5000 139.0000  94.0000 Du        
  14399 ****       125.5000 139.0000  94.2500 Du        
  14400 ****       125.5000 139.0000  94.5000 Du        
  14401 ****       125.5000 139.0000  94.7500 Du        
  14402 ****       125.5000 139.0000  95.0000 Du        
  14403 ****       125.5000 139.0000  95.2500 Du        
  14404 ****       125.5000 139.0000  95.5000 Du        
  14405 ****       125.5000 139.0000  95.7500 Du        
  14406 ****       125.5000 139.0000  96.0000 Du        
  14407 ****       125.5000 139.0000  96.2500 Du        
  14408 ****       125.5000 139.0000  96.5000 Du        
  14409 ****       125.5000 139.0000  96.7500 Du        
  14410 ****       125.5000 139.0000  97.0000 Du        
  14411 ****       125.5000 139.2500  92.0000 Du        
  14412 ****       125.5000 139.2500  92.2500 Du        
  14413 ****       125.5000 139.2500  94.7500 Du        
  14414 ****       125.5000 139.2500  95.0000 Du        
  14415 ****       125.5000 139.2500  95.2500 Du        
  14416 ****       125.5000 139.2500  95.5000 Du        
  14417 ****       125.5000 139.2500  95.7500 Du        
  14418 ****       125.5000 139.2500  96.0000 Du        
  14419 ****       125.5000 139.2500  96.2500 Du        
  14420 ****       125.5000 139.2500  96.5000 Du        
  14421 ****       125.5000 139.2500  96.7500 Du        
  14422 ****       125.5000 139.2500  97.0000 Du        
  14423 ****       125.5000 139.2500  97.2500 Du        
  14424 ****       125.5000 139.5000  95.7500 Du        
  14425 ****       125.5000 139.5000  96.0000 Du        
  14426 ****       125.5000 139.5000  96.2500 Du        
  14427 ****       125.5000 139.5000  96.5000 Du        
  14428 ****       125.5000 139.5000  96.7500 Du        
  14429 ****       125.5000 139.5000  97.0000 Du        
  14430 ****       125.5000 139.5000  97.2500 Du        
  14431 ****       125.5000 139.7500  95.7500 Du        
  14432 ****       125.5000 139.7500  96.0000 Du        
  14433 ****       125.5000 139.7500  96.2500 Du        
  14434 ****       125.5000 139.7500  96.5000 Du        
  14435 ****       125.5000 139.7500  96.7500 Du        
  14436 ****       125.5000 139.7500  97.0000 Du        
  14437 ****       125.5000 139.7500  97.2500 Du        
  14438 ****       125.5000 139.7500  97.5000 Du        
  14439 ****       125.5000 140.0000  96.0000 Du        
  14440 ****       125.5000 140.0000  96.2500 Du        
  14441 ****       125.5000 140.0000  96.5000 Du        
  14442 ****       125.5000 140.0000  96.7500 Du        
  14443 ****       125.5000 140.0000  97.0000 Du        
  14444 ****       125.5000 140.0000  97.2500 Du        
  14445 ****       125.5000 140.0000  97.5000 Du        
  14446 ****       125.5000 140.0000  97.7500 Du        
  14447 ****       125.5000 140.2500  96.2500 Du        
  14448 ****       125.5000 140.2500  96.5000 Du        
  14449 ****       125.5000 140.2500  96.7500 Du        
  14450 ****       125.5000 140.2500  97.0000 Du        
  14451 ****       125.5000 140.2500  97.2500 Du        
  14452 ****       125.5000 140.2500  97.5000 Du        
  14453 ****       125.5000 140.2500  97.7500 Du        
  14454 ****       125.5000 140.2500  98.0000 Du        
  14455 ****       125.5000 140.5000  96.5000 Du        
  14456 ****       125.5000 140.5000  96.7500 Du        
  14457 ****       125.5000 140.5000  97.0000 Du        
  14458 ****       125.5000 140.5000  97.2500 Du        
  14459 ****       125.5000 140.5000  97.5000 Du        
  14460 ****       125.5000 140.5000  97.7500 Du        
  14461 ****       125.5000 140.5000  98.0000 Du        
  14462 ****       125.5000 140.5000  98.2500 Du        
  14463 ****       125.5000 140.7500  96.2500 Du        
  14464 ****       125.5000 140.7500  96.5000 Du        
  14465 ****       125.5000 140.7500  96.7500 Du        
  14466 ****       125.5000 140.7500  97.0000 Du        
  14467 ****       125.5000 140.7500  97.2500 Du        
  14468 ****       125.5000 140.7500  97.5000 Du        
  14469 ****       125.5000 140.7500  97.7500 Du        
  14470 ****       125.5000 140.7500  98.0000 Du        
  14471 ****       125.5000 140.7500  98.2500 Du        
  14472 ****       125.5000 140.7500  98.5000 Du        
  14473 ****       125.5000 141.0000  96.5000 Du        
  14474 ****       125.5000 141.0000  96.7500 Du        
  14475 ****       125.5000 141.0000  97.0000 Du        
  14476 ****       125.5000 141.0000  97.2500 Du        
  14477 ****       125.5000 141.0000  97.5000 Du        
  14478 ****       125.5000 141.0000  97.7500 Du        
  14479 ****       125.5000 141.0000  98.0000 Du        
  14480 ****       125.5000 141.0000  98.2500 Du        
  14481 ****       125.5000 141.0000  98.5000 Du        
  14482 ****       125.5000 141.0000  98.7500 Du        
  14483 ****       125.5000 141.2500  96.5000 Du        
  14484 ****       125.5000 141.2500  96.7500 Du        
  14485 ****       125.5000 141.2500  97.0000 Du        
  14486 ****       125.5000 141.2500  97.2500 Du        
  14487 ****       125.5000 141.2500  97.5000 Du        
  14488 ****       125.5000 141.2500  97.7500 Du        
  14489 ****       125.5000 141.2500  98.0000 Du        
  14490 ****       125.5000 141.5000  96.5000 Du        
  14491 ****       125.5000 141.5000  96.7500 Du        
  14492 ****       125.5000 141.5000  97.0000 Du        
  14493 ****       125.5000 143.5000 149.0000 Du        
  14494 ****       125.5000 143.7500 149.0000 Du        
  14495 ****       125.5000 143.7500 149.2500 Du        
  14496 ****       125.5000 143.7500 149.5000 Du        
  14497 ****       125.5000 143.7500 149.7500 Du        
  14498 ****       125.5000 144.0000 149.0000 Du        
  14499 ****       125.5000 144.0000 149.2500 Du        
  14500 ****       125.5000 144.0000 149.5000 Du        
  14501 ****       125.5000 145.0000 119.7500 Du        
  14502 ****       125.5000 145.0000 120.0000 Du        
  14503 ****       125.5000 145.0000 120.2500 Du        
  14504 ****       125.5000 145.0000 120.5000 Du        
  14505 ****       125.5000 145.0000 120.7500 Du        
  14506 ****       125.5000 145.0000 121.0000 Du        
  14507 ****       125.5000 145.2500 119.5000 Du        
  14508 ****       125.5000 145.2500 119.7500 Du        
  14509 ****       125.5000 145.2500 120.0000 Du        
  14510 ****       125.5000 145.2500 120.2500 Du        
  14511 ****       125.5000 145.2500 120.5000 Du        
  14512 ****       125.5000 145.2500 120.7500 Du        
  14513 ****       125.5000 145.2500 121.0000 Du        
  14514 ****       125.5000 145.5000 119.2500 Du        
  14515 ****       125.5000 145.5000 119.5000 Du        
  14516 ****       125.5000 145.5000 119.7500 Du        
  14517 ****       125.5000 145.5000 120.0000 Du        
  14518 ****       125.5000 145.5000 120.2500 Du        
  14519 ****       125.5000 145.5000 120.5000 Du        
  14520 ****       125.5000 145.7500 118.7500 Du        
  14521 ****       125.5000 145.7500 119.0000 Du        
  14522 ****       125.5000 145.7500 119.2500 Du        
  14523 ****       125.5000 145.7500 119.5000 Du        
  14524 ****       125.5000 145.7500 119.7500 Du        
  14525 ****       125.5000 145.7500 120.0000 Du        
  14526 ****       125.5000 145.7500 120.2500 Du        
  14527 ****       125.5000 146.0000 118.5000 Du        
  14528 ****       125.5000 146.0000 118.7500 Du        
  14529 ****       125.5000 146.0000 119.0000 Du        
  14530 ****       125.5000 146.0000 119.2500 Du        
  14531 ****       125.5000 146.0000 119.5000 Du        
  14532 ****       125.5000 146.0000 119.7500 Du        
  14533 ****       125.5000 146.0000 120.0000 Du        
  14534 ****       125.5000 146.0000 120.2500 Du        
  14535 ****       125.5000 146.2500 118.2500 Du        
  14536 ****       125.5000 146.2500 118.5000 Du        
  14537 ****       125.5000 146.2500 118.7500 Du        
  14538 ****       125.5000 146.2500 119.0000 Du        
  14539 ****       125.5000 146.2500 119.2500 Du        
  14540 ****       125.5000 146.2500 119.5000 Du        
  14541 ****       125.5000 146.2500 119.7500 Du        
  14542 ****       125.5000 146.2500 120.0000 Du        
  14543 ****       125.5000 146.5000 118.5000 Du        
  14544 ****       125.5000 146.5000 118.7500 Du        
  14545 ****       125.5000 146.5000 119.0000 Du        
  14546 ****       125.5000 146.5000 119.2500 Du        
  14547 ****       125.5000 146.5000 119.5000 Du        
  14548 ****       125.5000 146.7500 118.5000 Du        
  14549 ****       125.5000 146.7500 118.7500 Du        
  14550 ****       125.5000 146.7500 119.0000 Du        
  14551 ****       125.5000 146.7500 119.2500 Du        
  14552 ****       125.5000 146.7500 119.5000 Du        
  14553 ****       125.5000 147.0000 118.7500 Du        
  14554 ****       125.5000 147.0000 119.0000 Du        
  14555 ****       125.5000 147.0000 119.2500 Du        
  14556 ****       125.5000 147.2500 119.0000 Du        
  14557 ****       125.5000 147.2500 119.2500 Du        
  14558 ****       125.5000 154.2500 157.2500 Du        
  14559 ****       125.5000 154.2500 157.5000 Du        
  14560 ****       125.5000 154.2500 157.7500 Du        
  14561 ****       125.5000 154.2500 158.0000 Du        
  14562 ****       125.5000 154.2500 158.2500 Du        
  14563 ****       125.5000 154.5000 157.2500 Du        
  14564 ****       125.5000 154.5000 157.5000 Du        
  14565 ****       125.5000 154.5000 157.7500 Du        
  14566 ****       125.5000 154.5000 158.0000 Du        
  14567 ****       125.5000 154.5000 158.2500 Du        
  14568 ****       125.5000 154.7500 157.5000 Du        
  14569 ****       125.5000 154.7500 157.7500 Du        
  14570 ****       125.5000 154.7500 158.0000 Du        
  14571 ****       125.5000 154.7500 158.2500 Du        
  14572 ****       125.5000 154.7500 158.5000 Du        
  14573 ****       125.5000 155.0000 157.5000 Du        
  14574 ****       125.5000 155.0000 157.7500 Du        
  14575 ****       125.5000 155.0000 158.0000 Du        
  14576 ****       125.5000 155.0000 158.2500 Du        
  14577 ****       125.5000 155.0000 158.5000 Du        
  14578 ****       125.5000 155.2500 157.7500 Du        
  14579 ****       125.5000 155.2500 158.0000 Du        
  14580 ****       125.5000 155.2500 158.2500 Du        
  14581 ****       125.5000 155.2500 158.5000 Du        
  14582 ****       125.5000 155.2500 158.7500 Du        
  14583 ****       125.5000 155.5000 157.7500 Du        
  14584 ****       125.5000 155.5000 158.0000 Du        
  14585 ****       125.5000 155.5000 158.2500 Du        
  14586 ****       125.5000 155.5000 158.5000 Du        
  14587 ****       125.5000 155.5000 158.7500 Du        
  14588 ****       125.5000 155.5000 159.0000 Du        
  14589 ****       125.5000 155.7500 158.0000 Du        
  14590 ****       125.5000 155.7500 158.2500 Du        
  14591 ****       125.5000 155.7500 158.5000 Du        
  14592 ****       125.5000 155.7500 158.7500 Du        
  14593 ****       125.5000 155.7500 159.0000 Du        
  14594 ****       125.5000 156.0000 158.0000 Du        
  14595 ****       125.5000 156.0000 158.2500 Du        
  14596 ****       125.5000 156.0000 158.5000 Du        
  14597 ****       125.5000 156.0000 158.7500 Du        
  14598 ****       125.5000 156.0000 159.0000 Du        
  14599 ****       125.5000 156.0000 159.2500 Du        
  14600 ****       125.5000 156.2500 158.0000 Du        
  14601 ****       125.5000 156.2500 158.2500 Du        
  14602 ****       125.5000 156.2500 158.5000 Du        
  14603 ****       125.5000 156.2500 158.7500 Du        
  14604 ****       125.5000 156.2500 159.0000 Du        
  14605 ****       125.5000 156.2500 159.2500 Du        
  14606 ****       125.5000 156.2500 159.5000 Du        
  14607 ****       125.5000 156.5000 158.2500 Du        
  14608 ****       125.5000 156.5000 158.5000 Du        
  14609 ****       125.5000 156.5000 158.7500 Du        
  14610 ****       125.5000 156.5000 159.0000 Du        
  14611 ****       125.5000 156.5000 159.2500 Du        
  14612 ****       125.5000 158.2500 103.7500 Du        
  14613 ****       125.5000 158.2500 104.0000 Du        
  14614 ****       125.5000 158.5000 103.7500 Du        
  14615 ****       125.5000 158.7500 103.2500 Du        
  14616 ****       125.5000 158.7500 103.5000 Du        
  14617 ****       125.5000 158.7500 103.7500 Du        
  14618 ****       125.5000 159.0000 103.0000 Du        
  14619 ****       125.5000 159.0000 103.2500 Du        
  14620 ****       125.5000 159.0000 103.5000 Du        
  14621 ****       125.5000 159.0000 103.7500 Du        
  14622 ****       125.5000 159.2500 103.2500 Du        
  14623 ****       125.5000 159.2500 103.7500 Du        
  14624 ****       125.7500 121.0000 156.2500 Du        
  14625 ****       125.7500 121.0000 156.5000 Du        
  14626 ****       125.7500 121.0000 156.7500 Du        
  14627 ****       125.7500 121.0000 157.0000 Du        
  14628 ****       125.7500 121.0000 157.2500 Du        
  14629 ****       125.7500 121.0000 157.5000 Du        
  14630 ****       125.7500 121.0000 157.7500 Du        
  14631 ****       125.7500 121.0000 164.5000 Du        
  14632 ****       125.7500 121.0000 164.7500 Du        
  14633 ****       125.7500 121.0000 165.0000 Du        
  14634 ****       125.7500 121.2500 156.0000 Du        
  14635 ****       125.7500 121.2500 156.2500 Du        
  14636 ****       125.7500 121.2500 156.5000 Du        
  14637 ****       125.7500 121.2500 156.7500 Du        
  14638 ****       125.7500 121.2500 157.0000 Du        
  14639 ****       125.7500 121.2500 157.2500 Du        
  14640 ****       125.7500 121.2500 157.5000 Du        
  14641 ****       125.7500 121.2500 164.5000 Du        
  14642 ****       125.7500 121.2500 164.7500 Du        
  14643 ****       125.7500 121.2500 165.0000 Du        
  14644 ****       125.7500 121.5000 156.0000 Du        
  14645 ****       125.7500 121.5000 156.2500 Du        
  14646 ****       125.7500 121.5000 156.5000 Du        
  14647 ****       125.7500 121.5000 156.7500 Du        
  14648 ****       125.7500 121.5000 157.0000 Du        
  14649 ****       125.7500 121.5000 157.2500 Du        
  14650 ****       125.7500 121.5000 157.5000 Du        
  14651 ****       125.7500 121.5000 164.5000 Du        
  14652 ****       125.7500 121.5000 164.7500 Du        
  14653 ****       125.7500 121.5000 165.0000 Du        
  14654 ****       125.7500 121.5000 165.2500 Du        
  14655 ****       125.7500 121.7500 156.2500 Du        
  14656 ****       125.7500 121.7500 156.5000 Du        
  14657 ****       125.7500 121.7500 156.7500 Du        
  14658 ****       125.7500 121.7500 157.0000 Du        
  14659 ****       125.7500 121.7500 157.2500 Du        
  14660 ****       125.7500 121.7500 157.5000 Du        
  14661 ****       125.7500 121.7500 157.7500 Du        
  14662 ****       125.7500 121.7500 164.5000 Du        
  14663 ****       125.7500 121.7500 164.7500 Du        
  14664 ****       125.7500 121.7500 165.0000 Du        
  14665 ****       125.7500 121.7500 165.2500 Du        
  14666 ****       125.7500 122.0000 156.5000 Du        
  14667 ****       125.7500 122.0000 156.7500 Du        
  14668 ****       125.7500 122.0000 157.0000 Du        
  14669 ****       125.7500 122.0000 157.2500 Du        
  14670 ****       125.7500 122.0000 157.5000 Du        
  14671 ****       125.7500 124.7500 159.7500 Du        
  14672 ****       125.7500 125.0000 159.7500 Du        
  14673 ****       125.7500 126.5000  99.5000 Du        
  14674 ****       125.7500 130.0000 162.7500 Du        
  14675 ****       125.7500 130.0000 163.0000 Du        
  14676 ****       125.7500 130.2500 162.5000 Du        
  14677 ****       125.7500 130.2500 162.7500 Du        
  14678 ****       125.7500 130.2500 163.0000 Du        
  14679 ****       125.7500 130.2500 163.2500 Du        
  14680 ****       125.7500 130.2500 163.5000 Du        
  14681 ****       125.7500 130.2500 163.7500 Du        
  14682 ****       125.7500 130.5000 162.7500 Du        
  14683 ****       125.7500 130.5000 163.0000 Du        
  14684 ****       125.7500 130.5000 163.2500 Du        
  14685 ****       125.7500 130.5000 163.5000 Du        
  14686 ****       125.7500 130.5000 163.7500 Du        
  14687 ****       125.7500 130.5000 164.0000 Du        
  14688 ****       125.7500 130.7500 162.7500 Du        
  14689 ****       125.7500 130.7500 163.0000 Du        
  14690 ****       125.7500 130.7500 163.2500 Du        
  14691 ****       125.7500 130.7500 163.5000 Du        
  14692 ****       125.7500 130.7500 163.7500 Du        
  14693 ****       125.7500 130.7500 164.0000 Du        
  14694 ****       125.7500 130.7500 164.2500 Du        
  14695 ****       125.7500 130.7500 164.5000 Du        
  14696 ****       125.7500 131.0000 162.7500 Du        
  14697 ****       125.7500 131.0000 163.0000 Du        
  14698 ****       125.7500 131.0000 163.2500 Du        
  14699 ****       125.7500 131.0000 163.5000 Du        
  14700 ****       125.7500 131.0000 163.7500 Du        
  14701 ****       125.7500 131.0000 164.0000 Du        
  14702 ****       125.7500 131.0000 164.2500 Du        
  14703 ****       125.7500 131.0000 164.5000 Du        
  14704 ****       125.7500 131.0000 164.7500 Du        
  14705 ****       125.7500 131.2500 162.7500 Du        
  14706 ****       125.7500 131.2500 163.0000 Du        
  14707 ****       125.7500 131.2500 163.2500 Du        
  14708 ****       125.7500 131.2500 163.5000 Du        
  14709 ****       125.7500 131.2500 163.7500 Du        
  14710 ****       125.7500 131.2500 164.0000 Du        
  14711 ****       125.7500 131.2500 164.2500 Du        
  14712 ****       125.7500 131.2500 164.5000 Du        
  14713 ****       125.7500 131.2500 164.7500 Du        
  14714 ****       125.7500 131.2500 165.0000 Du        
  14715 ****       125.7500 131.5000 162.7500 Du        
  14716 ****       125.7500 131.5000 163.0000 Du        
  14717 ****       125.7500 131.5000 163.2500 Du        
  14718 ****       125.7500 131.5000 163.5000 Du        
  14719 ****       125.7500 131.5000 163.7500 Du        
  14720 ****       125.7500 131.5000 164.0000 Du        
  14721 ****       125.7500 131.5000 164.2500 Du        
  14722 ****       125.7500 131.5000 164.5000 Du        
  14723 ****       125.7500 131.5000 164.7500 Du        
  14724 ****       125.7500 131.5000 165.0000 Du        
  14725 ****       125.7500 131.5000 165.2500 Du        
  14726 ****       125.7500 131.7500 162.2500 Du        
  14727 ****       125.7500 131.7500 162.5000 Du        
  14728 ****       125.7500 131.7500 162.7500 Du        
  14729 ****       125.7500 131.7500 163.0000 Du        
  14730 ****       125.7500 131.7500 163.2500 Du        
  14731 ****       125.7500 131.7500 163.5000 Du        
  14732 ****       125.7500 131.7500 163.7500 Du        
  14733 ****       125.7500 131.7500 164.0000 Du        
  14734 ****       125.7500 131.7500 164.2500 Du        
  14735 ****       125.7500 131.7500 164.5000 Du        
  14736 ****       125.7500 131.7500 164.7500 Du        
  14737 ****       125.7500 131.7500 165.0000 Du        
  14738 ****       125.7500 131.7500 165.2500 Du        
  14739 ****       125.7500 131.7500 165.5000 Du        
  14740 ****       125.7500 132.0000 161.7500 Du        
  14741 ****       125.7500 132.0000 162.0000 Du        
  14742 ****       125.7500 132.0000 162.2500 Du        
  14743 ****       125.7500 132.0000 162.5000 Du        
  14744 ****       125.7500 132.0000 162.7500 Du        
  14745 ****       125.7500 132.0000 163.0000 Du        
  14746 ****       125.7500 132.0000 163.2500 Du        
  14747 ****       125.7500 132.0000 163.5000 Du        
  14748 ****       125.7500 132.0000 163.7500 Du        
  14749 ****       125.7500 132.0000 164.0000 Du        
  14750 ****       125.7500 132.0000 164.2500 Du        
  14751 ****       125.7500 132.0000 164.5000 Du        
  14752 ****       125.7500 132.0000 164.7500 Du        
  14753 ****       125.7500 132.0000 165.0000 Du        
  14754 ****       125.7500 132.0000 165.2500 Du        
  14755 ****       125.7500 132.0000 165.5000 Du        
  14756 ****       125.7500 132.0000 165.7500 Du        
  14757 ****       125.7500 132.2500 161.5000 Du        
  14758 ****       125.7500 132.2500 161.7500 Du        
  14759 ****       125.7500 132.2500 162.0000 Du        
  14760 ****       125.7500 132.2500 162.2500 Du        
  14761 ****       125.7500 132.2500 162.5000 Du        
  14762 ****       125.7500 132.2500 162.7500 Du        
  14763 ****       125.7500 132.2500 163.0000 Du        
  14764 ****       125.7500 132.2500 163.2500 Du        
  14765 ****       125.7500 132.2500 163.5000 Du        
  14766 ****       125.7500 132.2500 163.7500 Du        
  14767 ****       125.7500 132.2500 164.0000 Du        
  14768 ****       125.7500 132.2500 164.2500 Du        
  14769 ****       125.7500 132.2500 164.5000 Du        
  14770 ****       125.7500 132.2500 164.7500 Du        
  14771 ****       125.7500 132.2500 165.0000 Du        
  14772 ****       125.7500 132.2500 165.2500 Du        
  14773 ****       125.7500 132.2500 165.5000 Du        
  14774 ****       125.7500 132.2500 165.7500 Du        
  14775 ****       125.7500 132.2500 166.0000 Du        
  14776 ****       125.7500 132.5000 161.0000 Du        
  14777 ****       125.7500 132.5000 161.2500 Du        
  14778 ****       125.7500 132.5000 161.5000 Du        
  14779 ****       125.7500 132.5000 161.7500 Du        
  14780 ****       125.7500 132.5000 162.0000 Du        
  14781 ****       125.7500 132.5000 162.2500 Du        
  14782 ****       125.7500 132.5000 162.5000 Du        
  14783 ****       125.7500 132.5000 162.7500 Du        
  14784 ****       125.7500 132.5000 163.0000 Du        
  14785 ****       125.7500 132.5000 163.2500 Du        
  14786 ****       125.7500 132.5000 163.5000 Du        
  14787 ****       125.7500 132.5000 163.7500 Du        
  14788 ****       125.7500 132.5000 164.0000 Du        
  14789 ****       125.7500 132.5000 164.2500 Du        
  14790 ****       125.7500 132.5000 164.5000 Du        
  14791 ****       125.7500 132.5000 164.7500 Du        
  14792 ****       125.7500 132.5000 165.0000 Du        
  14793 ****       125.7500 132.5000 165.2500 Du        
  14794 ****       125.7500 132.5000 165.5000 Du        
  14795 ****       125.7500 132.5000 165.7500 Du        
  14796 ****       125.7500 132.5000 166.0000 Du        
  14797 ****       125.7500 132.7500 160.5000 Du        
  14798 ****       125.7500 132.7500 160.7500 Du        
  14799 ****       125.7500 132.7500 161.0000 Du        
  14800 ****       125.7500 132.7500 161.2500 Du        
  14801 ****       125.7500 132.7500 161.5000 Du        
  14802 ****       125.7500 132.7500 161.7500 Du        
  14803 ****       125.7500 132.7500 162.0000 Du        
  14804 ****       125.7500 132.7500 162.2500 Du        
  14805 ****       125.7500 132.7500 162.5000 Du        
  14806 ****       125.7500 132.7500 162.7500 Du        
  14807 ****       125.7500 132.7500 163.0000 Du        
  14808 ****       125.7500 132.7500 163.2500 Du        
  14809 ****       125.7500 132.7500 163.5000 Du        
  14810 ****       125.7500 132.7500 163.7500 Du        
  14811 ****       125.7500 132.7500 164.0000 Du        
  14812 ****       125.7500 132.7500 164.2500 Du        
  14813 ****       125.7500 132.7500 164.5000 Du        
  14814 ****       125.7500 132.7500 164.7500 Du        
  14815 ****       125.7500 132.7500 165.0000 Du        
  14816 ****       125.7500 132.7500 165.2500 Du        
  14817 ****       125.7500 132.7500 165.5000 Du        
  14818 ****       125.7500 132.7500 165.7500 Du        
  14819 ****       125.7500 132.7500 166.0000 Du        
  14820 ****       125.7500 132.7500 166.2500 Du        
  14821 ****       125.7500 133.0000 160.5000 Du        
  14822 ****       125.7500 133.0000 160.7500 Du        
  14823 ****       125.7500 133.0000 161.0000 Du        
  14824 ****       125.7500 133.0000 161.2500 Du        
  14825 ****       125.7500 133.0000 161.5000 Du        
  14826 ****       125.7500 133.0000 161.7500 Du        
  14827 ****       125.7500 133.0000 162.0000 Du        
  14828 ****       125.7500 133.0000 162.2500 Du        
  14829 ****       125.7500 133.0000 162.5000 Du        
  14830 ****       125.7500 133.0000 162.7500 Du        
  14831 ****       125.7500 133.0000 163.0000 Du        
  14832 ****       125.7500 133.0000 163.2500 Du        
  14833 ****       125.7500 133.0000 163.5000 Du        
  14834 ****       125.7500 133.0000 163.7500 Du        
  14835 ****       125.7500 133.0000 164.0000 Du        
  14836 ****       125.7500 133.0000 164.2500 Du        
  14837 ****       125.7500 133.0000 164.5000 Du        
  14838 ****       125.7500 133.0000 164.7500 Du        
  14839 ****       125.7500 133.0000 165.0000 Du        
  14840 ****       125.7500 133.0000 165.2500 Du        
  14841 ****       125.7500 133.0000 165.5000 Du        
  14842 ****       125.7500 133.0000 165.7500 Du        
  14843 ****       125.7500 133.0000 166.0000 Du        
  14844 ****       125.7500 133.2500 160.5000 Du        
  14845 ****       125.7500 133.2500 160.7500 Du        
  14846 ****       125.7500 133.2500 161.0000 Du        
  14847 ****       125.7500 133.2500 161.2500 Du        
  14848 ****       125.7500 133.2500 161.5000 Du        
  14849 ****       125.7500 133.2500 161.7500 Du        
  14850 ****       125.7500 133.2500 162.0000 Du        
  14851 ****       125.7500 133.2500 162.2500 Du        
  14852 ****       125.7500 133.2500 162.5000 Du        
  14853 ****       125.7500 133.2500 163.5000 Du        
  14854 ****       125.7500 133.2500 163.7500 Du        
  14855 ****       125.7500 133.2500 164.0000 Du        
  14856 ****       125.7500 133.2500 164.2500 Du        
  14857 ****       125.7500 133.2500 164.5000 Du        
  14858 ****       125.7500 133.2500 164.7500 Du        
  14859 ****       125.7500 133.2500 165.0000 Du        
  14860 ****       125.7500 133.2500 165.2500 Du        
  14861 ****       125.7500 133.2500 165.5000 Du        
  14862 ****       125.7500 133.2500 165.7500 Du        
  14863 ****       125.7500 133.2500 166.0000 Du        
  14864 ****       125.7500 133.5000 160.0000 Du        
  14865 ****       125.7500 133.5000 160.2500 Du        
  14866 ****       125.7500 133.5000 160.5000 Du        
  14867 ****       125.7500 133.5000 160.7500 Du        
  14868 ****       125.7500 133.5000 161.0000 Du        
  14869 ****       125.7500 133.5000 161.2500 Du        
  14870 ****       125.7500 133.5000 161.5000 Du        
  14871 ****       125.7500 133.5000 161.7500 Du        
  14872 ****       125.7500 133.5000 162.0000 Du        
  14873 ****       125.7500 133.5000 164.2500 Du        
  14874 ****       125.7500 133.5000 164.5000 Du        
  14875 ****       125.7500 133.5000 164.7500 Du        
  14876 ****       125.7500 133.5000 165.0000 Du        
  14877 ****       125.7500 133.5000 165.2500 Du        
  14878 ****       125.7500 133.5000 165.5000 Du        
  14879 ****       125.7500 133.5000 165.7500 Du        
  14880 ****       125.7500 133.5000 166.0000 Du        
  14881 ****       125.7500 133.7500 159.5000 Du        
  14882 ****       125.7500 133.7500 159.7500 Du        
  14883 ****       125.7500 133.7500 160.0000 Du        
  14884 ****       125.7500 133.7500 160.2500 Du        
  14885 ****       125.7500 133.7500 160.5000 Du        
  14886 ****       125.7500 133.7500 160.7500 Du        
  14887 ****       125.7500 133.7500 161.0000 Du        
  14888 ****       125.7500 133.7500 161.2500 Du        
  14889 ****       125.7500 133.7500 161.5000 Du        
  14890 ****       125.7500 133.7500 164.7500 Du        
  14891 ****       125.7500 133.7500 165.0000 Du        
  14892 ****       125.7500 133.7500 165.2500 Du        
  14893 ****       125.7500 133.7500 165.5000 Du        
  14894 ****       125.7500 133.7500 165.7500 Du        
  14895 ****       125.7500 134.0000 158.7500 Du        
  14896 ****       125.7500 134.0000 159.0000 Du        
  14897 ****       125.7500 134.0000 159.2500 Du        
  14898 ****       125.7500 134.0000 159.5000 Du        
  14899 ****       125.7500 134.0000 159.7500 Du        
  14900 ****       125.7500 134.0000 160.0000 Du        
  14901 ****       125.7500 134.0000 160.2500 Du        
  14902 ****       125.7500 134.0000 160.5000 Du        
  14903 ****       125.7500 134.0000 160.7500 Du        
  14904 ****       125.7500 134.0000 165.2500 Du        
  14905 ****       125.7500 134.0000 165.5000 Du        
  14906 ****       125.7500 134.0000 165.7500 Du        
  14907 ****       125.7500 134.2500 158.2500 Du        
  14908 ****       125.7500 134.2500 158.7500 Du        
  14909 ****       125.7500 134.5000 157.7500 Du        
  14910 ****       125.7500 134.7500 156.5000 Du        
  14911 ****       125.7500 134.7500 156.7500 Du        
  14912 ****       125.7500 134.7500 157.0000 Du        
  14913 ****       125.7500 135.0000 156.2500 Du        
  14914 ****       125.7500 135.0000 156.5000 Du        
  14915 ****       125.7500 135.0000 156.7500 Du        
  14916 ****       125.7500 137.0000  95.2500 Du        
  14917 ****       125.7500 137.0000  95.5000 Du        
  14918 ****       125.7500 137.0000  95.7500 Du        
  14919 ****       125.7500 137.2500  95.0000 Du        
  14920 ****       125.7500 137.2500  95.2500 Du        
  14921 ****       125.7500 137.2500  95.5000 Du        
  14922 ****       125.7500 137.2500  95.7500 Du        
  14923 ****       125.7500 137.2500  96.0000 Du        
  14924 ****       125.7500 137.5000  94.7500 Du        
  14925 ****       125.7500 137.5000  95.0000 Du        
  14926 ****       125.7500 137.5000  95.2500 Du        
  14927 ****       125.7500 137.5000  95.5000 Du        
  14928 ****       125.7500 137.5000  95.7500 Du        
  14929 ****       125.7500 137.5000  96.0000 Du        
  14930 ****       125.7500 137.5000  96.2500 Du        
  14931 ****       125.7500 137.7500  94.5000 Du        
  14932 ****       125.7500 137.7500  94.7500 Du        
  14933 ****       125.7500 137.7500  95.0000 Du        
  14934 ****       125.7500 137.7500  95.2500 Du        
  14935 ****       125.7500 137.7500  95.5000 Du        
  14936 ****       125.7500 137.7500  95.7500 Du        
  14937 ****       125.7500 137.7500  96.0000 Du        
  14938 ****       125.7500 137.7500  96.2500 Du        
  14939 ****       125.7500 138.0000  94.0000 Du        
  14940 ****       125.7500 138.0000  94.2500 Du        
  14941 ****       125.7500 138.0000  94.5000 Du        
  14942 ****       125.7500 138.0000  94.7500 Du        
  14943 ****       125.7500 138.0000  95.0000 Du        
  14944 ****       125.7500 138.0000  95.2500 Du        
  14945 ****       125.7500 138.0000  95.5000 Du        
  14946 ****       125.7500 138.0000  95.7500 Du        
  14947 ****       125.7500 138.0000  96.0000 Du        
  14948 ****       125.7500 138.0000  96.2500 Du        
  14949 ****       125.7500 138.0000  96.5000 Du        
  14950 ****       125.7500 138.2500  93.2500 Du        
  14951 ****       125.7500 138.2500  93.5000 Du        
  14952 ****       125.7500 138.2500  93.7500 Du        
  14953 ****       125.7500 138.2500  94.0000 Du        
  14954 ****       125.7500 138.2500  94.2500 Du        
  14955 ****       125.7500 138.2500  94.5000 Du        
  14956 ****       125.7500 138.2500  94.7500 Du        
  14957 ****       125.7500 138.2500  95.0000 Du        
  14958 ****       125.7500 138.2500  95.2500 Du        
  14959 ****       125.7500 138.2500  95.5000 Du        
  14960 ****       125.7500 138.2500  95.7500 Du        
  14961 ****       125.7500 138.2500  96.0000 Du        
  14962 ****       125.7500 138.2500  96.2500 Du        
  14963 ****       125.7500 138.2500  96.5000 Du        
  14964 ****       125.7500 138.2500  96.7500 Du        
  14965 ****       125.7500 138.5000  92.0000 Du        
  14966 ****       125.7500 138.5000  92.2500 Du        
  14967 ****       125.7500 138.5000  92.5000 Du        
  14968 ****       125.7500 138.5000  92.7500 Du        
  14969 ****       125.7500 138.5000  93.0000 Du        
  14970 ****       125.7500 138.5000  93.2500 Du        
  14971 ****       125.7500 138.5000  93.5000 Du        
  14972 ****       125.7500 138.5000  93.7500 Du        
  14973 ****       125.7500 138.5000  94.0000 Du        
  14974 ****       125.7500 138.5000  94.2500 Du        
  14975 ****       125.7500 138.5000  94.5000 Du        
  14976 ****       125.7500 138.5000  94.7500 Du        
  14977 ****       125.7500 138.5000  95.0000 Du        
  14978 ****       125.7500 138.5000  95.2500 Du        
  14979 ****       125.7500 138.5000  95.5000 Du        
  14980 ****       125.7500 138.5000  95.7500 Du        
  14981 ****       125.7500 138.5000  96.0000 Du        
  14982 ****       125.7500 138.5000  96.2500 Du        
  14983 ****       125.7500 138.5000  96.5000 Du        
  14984 ****       125.7500 138.5000  96.7500 Du        
  14985 ****       125.7500 138.7500  91.7500 Du        
  14986 ****       125.7500 138.7500  92.0000 Du        
  14987 ****       125.7500 138.7500  92.2500 Du        
  14988 ****       125.7500 138.7500  92.5000 Du        
  14989 ****       125.7500 138.7500  92.7500 Du        
  14990 ****       125.7500 138.7500  93.0000 Du        
  14991 ****       125.7500 138.7500  93.2500 Du        
  14992 ****       125.7500 138.7500  93.5000 Du        
  14993 ****       125.7500 138.7500  93.7500 Du        
  14994 ****       125.7500 138.7500  94.0000 Du        
  14995 ****       125.7500 138.7500  94.2500 Du        
  14996 ****       125.7500 138.7500  94.5000 Du        
  14997 ****       125.7500 138.7500  94.7500 Du        
  14998 ****       125.7500 138.7500  95.0000 Du        
  14999 ****       125.7500 138.7500  95.2500 Du        
  15000 ****       125.7500 138.7500  95.5000 Du        
  15001 ****       125.7500 138.7500  95.7500 Du        
  15002 ****       125.7500 138.7500  96.0000 Du        
  15003 ****       125.7500 138.7500  96.2500 Du        
  15004 ****       125.7500 138.7500  96.5000 Du        
  15005 ****       125.7500 138.7500  96.7500 Du        
  15006 ****       125.7500 138.7500  97.0000 Du        
  15007 ****       125.7500 139.0000  91.7500 Du        
  15008 ****       125.7500 139.0000  92.0000 Du        
  15009 ****       125.7500 139.0000  92.2500 Du        
  15010 ****       125.7500 139.0000  92.5000 Du        
  15011 ****       125.7500 139.0000  92.7500 Du        
  15012 ****       125.7500 139.0000  93.0000 Du        
  15013 ****       125.7500 139.0000  93.2500 Du        
  15014 ****       125.7500 139.0000  93.5000 Du        
  15015 ****       125.7500 139.0000  93.7500 Du        
  15016 ****       125.7500 139.0000  94.0000 Du        
  15017 ****       125.7500 139.0000  94.2500 Du        
  15018 ****       125.7500 139.0000  94.5000 Du        
  15019 ****       125.7500 139.0000  94.7500 Du        
  15020 ****       125.7500 139.0000  95.0000 Du        
  15021 ****       125.7500 139.0000  95.2500 Du        
  15022 ****       125.7500 139.0000  95.5000 Du        
  15023 ****       125.7500 139.0000  95.7500 Du        
  15024 ****       125.7500 139.0000  96.0000 Du        
  15025 ****       125.7500 139.0000  96.2500 Du        
  15026 ****       125.7500 139.0000  96.5000 Du        
  15027 ****       125.7500 139.0000  96.7500 Du        
  15028 ****       125.7500 139.0000  97.0000 Du        
  15029 ****       125.7500 139.2500  91.7500 Du        
  15030 ****       125.7500 139.2500  92.0000 Du        
  15031 ****       125.7500 139.2500  92.2500 Du        
  15032 ****       125.7500 139.2500  92.5000 Du        
  15033 ****       125.7500 139.2500  92.7500 Du        
  15034 ****       125.7500 139.2500  94.5000 Du        
  15035 ****       125.7500 139.2500  94.7500 Du        
  15036 ****       125.7500 139.2500  95.0000 Du        
  15037 ****       125.7500 139.2500  95.2500 Du        
  15038 ****       125.7500 139.2500  95.5000 Du        
  15039 ****       125.7500 139.2500  95.7500 Du        
  15040 ****       125.7500 139.2500  96.0000 Du        
  15041 ****       125.7500 139.2500  96.2500 Du        
  15042 ****       125.7500 139.2500  96.5000 Du        
  15043 ****       125.7500 139.2500  96.7500 Du        
  15044 ****       125.7500 139.2500  97.0000 Du        
  15045 ****       125.7500 139.2500  97.2500 Du        
  15046 ****       125.7500 139.5000  95.7500 Du        
  15047 ****       125.7500 139.5000  96.0000 Du        
  15048 ****       125.7500 139.5000  96.2500 Du        
  15049 ****       125.7500 139.5000  96.5000 Du        
  15050 ****       125.7500 139.5000  96.7500 Du        
  15051 ****       125.7500 139.5000  97.0000 Du        
  15052 ****       125.7500 139.5000  97.2500 Du        
  15053 ****       125.7500 139.5000  97.5000 Du        
  15054 ****       125.7500 139.7500  95.7500 Du        
  15055 ****       125.7500 139.7500  96.0000 Du        
  15056 ****       125.7500 139.7500  96.2500 Du        
  15057 ****       125.7500 139.7500  96.5000 Du        
  15058 ****       125.7500 139.7500  96.7500 Du        
  15059 ****       125.7500 139.7500  97.0000 Du        
  15060 ****       125.7500 139.7500  97.2500 Du        
  15061 ****       125.7500 139.7500  97.5000 Du        
  15062 ****       125.7500 139.7500  97.7500 Du        
  15063 ****       125.7500 140.0000  96.0000 Du        
  15064 ****       125.7500 140.0000  96.2500 Du        
  15065 ****       125.7500 140.0000  96.5000 Du        
  15066 ****       125.7500 140.0000  96.7500 Du        
  15067 ****       125.7500 140.0000  97.0000 Du        
  15068 ****       125.7500 140.0000  97.2500 Du        
  15069 ****       125.7500 140.0000  97.5000 Du        
  15070 ****       125.7500 140.0000  97.7500 Du        
  15071 ****       125.7500 140.0000  98.0000 Du        
  15072 ****       125.7500 140.2500  96.2500 Du        
  15073 ****       125.7500 140.2500  96.5000 Du        
  15074 ****       125.7500 140.2500  96.7500 Du        
  15075 ****       125.7500 140.2500  97.0000 Du        
  15076 ****       125.7500 140.2500  97.2500 Du        
  15077 ****       125.7500 140.2500  97.5000 Du        
  15078 ****       125.7500 140.2500  97.7500 Du        
  15079 ****       125.7500 140.2500  98.0000 Du        
  15080 ****       125.7500 140.5000  96.5000 Du        
  15081 ****       125.7500 140.5000  96.7500 Du        
  15082 ****       125.7500 140.5000  97.0000 Du        
  15083 ****       125.7500 140.5000  97.2500 Du        
  15084 ****       125.7500 140.5000  97.5000 Du        
  15085 ****       125.7500 140.5000  97.7500 Du        
  15086 ****       125.7500 140.5000  98.0000 Du        
  15087 ****       125.7500 140.5000  98.2500 Du        
  15088 ****       125.7500 140.7500  96.2500 Du        
  15089 ****       125.7500 140.7500  96.5000 Du        
  15090 ****       125.7500 140.7500  96.7500 Du        
  15091 ****       125.7500 140.7500  97.0000 Du        
  15092 ****       125.7500 140.7500  97.2500 Du        
  15093 ****       125.7500 140.7500  97.5000 Du        
  15094 ****       125.7500 140.7500  97.7500 Du        
  15095 ****       125.7500 140.7500  98.0000 Du        
  15096 ****       125.7500 140.7500  98.2500 Du        
  15097 ****       125.7500 140.7500  98.5000 Du        
  15098 ****       125.7500 140.7500  98.7500 Du        
  15099 ****       125.7500 141.0000  96.5000 Du        
  15100 ****       125.7500 141.0000  96.7500 Du        
  15101 ****       125.7500 141.0000  97.0000 Du        
  15102 ****       125.7500 141.0000  97.2500 Du        
  15103 ****       125.7500 141.0000  97.5000 Du        
  15104 ****       125.7500 141.0000  97.7500 Du        
  15105 ****       125.7500 141.0000  98.0000 Du        
  15106 ****       125.7500 141.0000  98.2500 Du        
  15107 ****       125.7500 141.0000  98.5000 Du        
  15108 ****       125.7500 141.0000  98.7500 Du        
  15109 ****       125.7500 141.2500  96.5000 Du        
  15110 ****       125.7500 141.2500  96.7500 Du        
  15111 ****       125.7500 141.2500  97.0000 Du        
  15112 ****       125.7500 141.2500  97.2500 Du        
  15113 ****       125.7500 141.2500  97.5000 Du        
  15114 ****       125.7500 141.2500  97.7500 Du        
  15115 ****       125.7500 141.5000  96.5000 Du        
  15116 ****       125.7500 141.5000  96.7500 Du        
  15117 ****       125.7500 143.7500 148.7500 Du        
  15118 ****       125.7500 143.7500 149.0000 Du        
  15119 ****       125.7500 144.0000 148.7500 Du        
  15120 ****       125.7500 144.0000 149.0000 Du        
  15121 ****       125.7500 145.2500 120.0000 Du        
  15122 ****       125.7500 145.2500 120.2500 Du        
  15123 ****       125.7500 145.5000 119.7500 Du        
  15124 ****       125.7500 145.5000 120.0000 Du        
  15125 ****       125.7500 145.7500 119.2500 Du        
  15126 ****       125.7500 145.7500 119.5000 Du        
  15127 ****       125.7500 145.7500 119.7500 Du        
  15128 ****       125.7500 145.7500 120.0000 Du        
  15129 ****       125.7500 146.0000 118.7500 Du        
  15130 ****       125.7500 146.0000 119.0000 Du        
  15131 ****       125.7500 146.0000 119.2500 Du        
  15132 ****       125.7500 146.0000 119.5000 Du        
  15133 ****       125.7500 146.0000 119.7500 Du        
  15134 ****       125.7500 146.0000 120.0000 Du        
  15135 ****       125.7500 146.2500 118.5000 Du        
  15136 ****       125.7500 146.2500 118.7500 Du        
  15137 ****       125.7500 146.2500 119.0000 Du        
  15138 ****       125.7500 146.2500 119.2500 Du        
  15139 ****       125.7500 146.2500 119.5000 Du        
  15140 ****       125.7500 146.2500 119.7500 Du        
  15141 ****       125.7500 146.5000 118.5000 Du        
  15142 ****       125.7500 146.5000 118.7500 Du        
  15143 ****       125.7500 146.5000 119.0000 Du        
  15144 ****       125.7500 146.5000 119.2500 Du        
  15145 ****       125.7500 146.5000 119.5000 Du        
  15146 ****       125.7500 146.7500 118.7500 Du        
  15147 ****       125.7500 146.7500 119.0000 Du        
  15148 ****       125.7500 146.7500 119.2500 Du        
  15149 ****       125.7500 146.7500 119.5000 Du        
  15150 ****       125.7500 147.0000 118.7500 Du        
  15151 ****       125.7500 147.0000 119.0000 Du        
  15152 ****       125.7500 147.0000 119.2500 Du        
  15153 ****       125.7500 147.2500 119.0000 Du        
  15154 ****       125.7500 147.2500 119.2500 Du        
  15155 ****       125.7500 154.2500 157.5000 Du        
  15156 ****       125.7500 154.2500 157.7500 Du        
  15157 ****       125.7500 154.2500 158.0000 Du        
  15158 ****       125.7500 154.5000 157.5000 Du        
  15159 ****       125.7500 154.5000 157.7500 Du        
  15160 ****       125.7500 154.5000 158.0000 Du        
  15161 ****       125.7500 154.5000 158.2500 Du        
  15162 ****       125.7500 154.5000 158.5000 Du        
  15163 ****       125.7500 154.7500 157.5000 Du        
  15164 ****       125.7500 154.7500 157.7500 Du        
  15165 ****       125.7500 154.7500 158.0000 Du        
  15166 ****       125.7500 154.7500 158.2500 Du        
  15167 ****       125.7500 154.7500 158.5000 Du        
  15168 ****       125.7500 154.7500 158.7500 Du        
  15169 ****       125.7500 155.0000 157.5000 Du        
  15170 ****       125.7500 155.0000 157.7500 Du        
  15171 ****       125.7500 155.0000 158.0000 Du        
  15172 ****       125.7500 155.0000 158.2500 Du        
  15173 ****       125.7500 155.0000 158.5000 Du        
  15174 ****       125.7500 155.0000 158.7500 Du        
  15175 ****       125.7500 155.2500 157.7500 Du        
  15176 ****       125.7500 155.2500 158.0000 Du        
  15177 ****       125.7500 155.2500 158.2500 Du        
  15178 ****       125.7500 155.2500 158.5000 Du        
  15179 ****       125.7500 155.2500 158.7500 Du        
  15180 ****       125.7500 155.2500 159.0000 Du        
  15181 ****       125.7500 155.5000 157.7500 Du        
  15182 ****       125.7500 155.5000 158.0000 Du        
  15183 ****       125.7500 155.5000 158.2500 Du        
  15184 ****       125.7500 155.5000 158.5000 Du        
  15185 ****       125.7500 155.5000 158.7500 Du        
  15186 ****       125.7500 155.5000 159.0000 Du        
  15187 ****       125.7500 155.7500 158.0000 Du        
  15188 ****       125.7500 155.7500 158.2500 Du        
  15189 ****       125.7500 155.7500 158.5000 Du        
  15190 ****       125.7500 155.7500 158.7500 Du        
  15191 ****       125.7500 155.7500 159.0000 Du        
  15192 ****       125.7500 155.7500 159.2500 Du        
  15193 ****       125.7500 156.0000 158.0000 Du        
  15194 ****       125.7500 156.0000 158.2500 Du        
  15195 ****       125.7500 156.0000 158.5000 Du        
  15196 ****       125.7500 156.0000 158.7500 Du        
  15197 ****       125.7500 156.0000 159.0000 Du        
  15198 ****       125.7500 156.0000 159.2500 Du        
  15199 ****       125.7500 156.0000 159.5000 Du        
  15200 ****       125.7500 156.2500 158.0000 Du        
  15201 ****       125.7500 156.2500 158.2500 Du        
  15202 ****       125.7500 156.2500 158.5000 Du        
  15203 ****       125.7500 156.2500 158.7500 Du        
  15204 ****       125.7500 156.2500 159.0000 Du        
  15205 ****       125.7500 156.2500 159.2500 Du        
  15206 ****       125.7500 156.2500 159.5000 Du        
  15207 ****       125.7500 156.2500 159.7500 Du        
  15208 ****       125.7500 156.5000 158.2500 Du        
  15209 ****       125.7500 156.5000 158.5000 Du        
  15210 ****       125.7500 156.5000 158.7500 Du        
  15211 ****       125.7500 156.5000 159.0000 Du        
  15212 ****       125.7500 156.5000 159.2500 Du        
  15213 ****       125.7500 156.5000 159.5000 Du        
  15214 ****       125.7500 156.5000 159.7500 Du        
  15215 ****       125.7500 156.5000 160.0000 Du        
  15216 ****       125.7500 156.7500 158.5000 Du        
  15217 ****       125.7500 156.7500 158.7500 Du        
  15218 ****       125.7500 156.7500 159.0000 Du        
  15219 ****       125.7500 158.7500 103.2500 Du        
  15220 ****       125.7500 159.0000 103.0000 Du        
  15221 ****       125.7500 159.0000 103.2500 Du        
  15222 ****       125.7500 159.0000 103.5000 Du        
  15223 ****       125.7500 159.2500 103.0000 Du        
  15224 ****       125.7500 159.2500 103.2500 Du        
  15225 ****       125.7500 159.2500 103.5000 Du        
  15226 ****       126.0000 121.0000 156.0000 Du        
  15227 ****       126.0000 121.0000 156.2500 Du        
  15228 ****       126.0000 121.0000 156.5000 Du        
  15229 ****       126.0000 121.0000 156.7500 Du        
  15230 ****       126.0000 121.0000 157.0000 Du        
  15231 ****       126.0000 121.0000 157.2500 Du        
  15232 ****       126.0000 121.0000 157.5000 Du        
  15233 ****       126.0000 121.0000 164.5000 Du        
  15234 ****       126.0000 121.0000 164.7500 Du        
  15235 ****       126.0000 121.0000 165.0000 Du        
  15236 ****       126.0000 121.2500 156.0000 Du        
  15237 ****       126.0000 121.2500 156.2500 Du        
  15238 ****       126.0000 121.2500 156.5000 Du        
  15239 ****       126.0000 121.2500 156.7500 Du        
  15240 ****       126.0000 121.2500 157.0000 Du        
  15241 ****       126.0000 121.2500 157.2500 Du        
  15242 ****       126.0000 121.2500 157.5000 Du        
  15243 ****       126.0000 121.2500 164.5000 Du        
  15244 ****       126.0000 121.2500 164.7500 Du        
  15245 ****       126.0000 121.2500 165.0000 Du        
  15246 ****       126.0000 121.2500 165.2500 Du        
  15247 ****       126.0000 121.5000 156.0000 Du        
  15248 ****       126.0000 121.5000 156.2500 Du        
  15249 ****       126.0000 121.5000 156.5000 Du        
  15250 ****       126.0000 121.5000 156.7500 Du        
  15251 ****       126.0000 121.5000 157.0000 Du        
  15252 ****       126.0000 121.5000 157.2500 Du        
  15253 ****       126.0000 121.5000 157.5000 Du        
  15254 ****       126.0000 121.5000 164.5000 Du        
  15255 ****       126.0000 121.5000 164.7500 Du        
  15256 ****       126.0000 121.5000 165.0000 Du        
  15257 ****       126.0000 121.5000 165.2500 Du        
  15258 ****       126.0000 121.7500 156.0000 Du        
  15259 ****       126.0000 121.7500 156.2500 Du        
  15260 ****       126.0000 121.7500 156.5000 Du        
  15261 ****       126.0000 121.7500 156.7500 Du        
  15262 ****       126.0000 121.7500 157.0000 Du        
  15263 ****       126.0000 121.7500 157.2500 Du        
  15264 ****       126.0000 121.7500 157.5000 Du        
  15265 ****       126.0000 121.7500 164.5000 Du        
  15266 ****       126.0000 121.7500 164.7500 Du        
  15267 ****       126.0000 121.7500 165.0000 Du        
  15268 ****       126.0000 121.7500 165.2500 Du        
  15269 ****       126.0000 122.0000 156.0000 Du        
  15270 ****       126.0000 122.0000 156.2500 Du        
  15271 ****       126.0000 122.0000 156.5000 Du        
  15272 ****       126.0000 122.0000 156.7500 Du        
  15273 ****       126.0000 122.0000 157.0000 Du        
  15274 ****       126.0000 122.0000 157.2500 Du        
  15275 ****       126.0000 122.0000 157.5000 Du        
  15276 ****       126.0000 122.2500 156.2500 Du        
  15277 ****       126.0000 122.2500 156.5000 Du        
  15278 ****       126.0000 122.2500 156.7500 Du        
  15279 ****       126.0000 122.2500 157.0000 Du        
  15280 ****       126.0000 122.2500 157.2500 Du        
  15281 ****       126.0000 122.2500 157.5000 Du        
  15282 ****       126.0000 124.0000 158.5000 Du        
  15283 ****       126.0000 124.0000 158.7500 Du        
  15284 ****       126.0000 124.2500 158.5000 Du        
  15285 ****       126.0000 124.2500 158.7500 Du        
  15286 ****       126.0000 124.2500 159.0000 Du        
  15287 ****       126.0000 130.0000 162.7500 Du        
  15288 ****       126.0000 130.0000 163.0000 Du        
  15289 ****       126.0000 130.0000 163.2500 Du        
  15290 ****       126.0000 130.0000 163.5000 Du        
  15291 ****       126.0000 130.2500 162.7500 Du        
  15292 ****       126.0000 130.2500 163.0000 Du        
  15293 ****       126.0000 130.2500 163.2500 Du        
  15294 ****       126.0000 130.2500 163.5000 Du        
  15295 ****       126.0000 130.2500 163.7500 Du        
  15296 ****       126.0000 130.5000 163.0000 Du        
  15297 ****       126.0000 130.5000 163.2500 Du        
  15298 ****       126.0000 130.5000 163.5000 Du        
  15299 ****       126.0000 130.5000 163.7500 Du        
  15300 ****       126.0000 130.5000 164.0000 Du        
  15301 ****       126.0000 130.7500 162.7500 Du        
  15302 ****       126.0000 130.7500 163.0000 Du        
  15303 ****       126.0000 130.7500 163.2500 Du        
  15304 ****       126.0000 130.7500 163.5000 Du        
  15305 ****       126.0000 130.7500 163.7500 Du        
  15306 ****       126.0000 130.7500 164.0000 Du        
  15307 ****       126.0000 130.7500 164.2500 Du        
  15308 ****       126.0000 130.7500 164.5000 Du        
  15309 ****       126.0000 131.0000 162.2500 Du        
  15310 ****       126.0000 131.0000 162.7500 Du        
  15311 ****       126.0000 131.0000 163.0000 Du        
  15312 ****       126.0000 131.0000 163.2500 Du        
  15313 ****       126.0000 131.0000 163.5000 Du        
  15314 ****       126.0000 131.0000 163.7500 Du        
  15315 ****       126.0000 131.0000 164.0000 Du        
  15316 ****       126.0000 131.0000 164.2500 Du        
  15317 ****       126.0000 131.0000 164.5000 Du        
  15318 ****       126.0000 131.0000 164.7500 Du        
  15319 ****       126.0000 131.2500 162.2500 Du        
  15320 ****       126.0000 131.2500 162.7500 Du        
  15321 ****       126.0000 131.2500 163.0000 Du        
  15322 ****       126.0000 131.2500 163.2500 Du        
  15323 ****       126.0000 131.2500 163.5000 Du        
  15324 ****       126.0000 131.2500 163.7500 Du        
  15325 ****       126.0000 131.2500 164.0000 Du        
  15326 ****       126.0000 131.2500 164.2500 Du        
  15327 ****       126.0000 131.2500 164.5000 Du        
  15328 ****       126.0000 131.2500 164.7500 Du        
  15329 ****       126.0000 131.5000 162.5000 Du        
  15330 ****       126.0000 131.5000 162.7500 Du        
  15331 ****       126.0000 131.5000 163.0000 Du        
  15332 ****       126.0000 131.5000 163.2500 Du        
  15333 ****       126.0000 131.5000 163.5000 Du        
  15334 ****       126.0000 131.5000 163.7500 Du        
  15335 ****       126.0000 131.5000 164.0000 Du        
  15336 ****       126.0000 131.5000 164.2500 Du        
  15337 ****       126.0000 131.5000 164.5000 Du        
  15338 ****       126.0000 131.5000 164.7500 Du        
  15339 ****       126.0000 131.5000 165.0000 Du        
  15340 ****       126.0000 131.7500 162.0000 Du        
  15341 ****       126.0000 131.7500 162.2500 Du        
  15342 ****       126.0000 131.7500 162.5000 Du        
  15343 ****       126.0000 131.7500 162.7500 Du        
  15344 ****       126.0000 131.7500 163.0000 Du        
  15345 ****       126.0000 131.7500 163.2500 Du        
  15346 ****       126.0000 131.7500 163.5000 Du        
  15347 ****       126.0000 131.7500 163.7500 Du        
  15348 ****       126.0000 131.7500 164.0000 Du        
  15349 ****       126.0000 131.7500 164.2500 Du        
  15350 ****       126.0000 131.7500 164.5000 Du        
  15351 ****       126.0000 131.7500 164.7500 Du        
  15352 ****       126.0000 131.7500 165.0000 Du        
  15353 ****       126.0000 131.7500 165.2500 Du        
  15354 ****       126.0000 132.0000 161.7500 Du        
  15355 ****       126.0000 132.0000 162.0000 Du        
  15356 ****       126.0000 132.0000 162.2500 Du        
  15357 ****       126.0000 132.0000 162.5000 Du        
  15358 ****       126.0000 132.0000 162.7500 Du        
  15359 ****       126.0000 132.0000 163.0000 Du        
  15360 ****       126.0000 132.0000 163.2500 Du        
  15361 ****       126.0000 132.0000 163.5000 Du        
  15362 ****       126.0000 132.0000 163.7500 Du        
  15363 ****       126.0000 132.0000 164.0000 Du        
  15364 ****       126.0000 132.0000 164.2500 Du        
  15365 ****       126.0000 132.0000 164.5000 Du        
  15366 ****       126.0000 132.0000 164.7500 Du        
  15367 ****       126.0000 132.0000 165.0000 Du        
  15368 ****       126.0000 132.0000 165.2500 Du        
  15369 ****       126.0000 132.0000 165.5000 Du        
  15370 ****       126.0000 132.0000 165.7500 Du        
  15371 ****       126.0000 132.2500 161.0000 Du        
  15372 ****       126.0000 132.2500 161.2500 Du        
  15373 ****       126.0000 132.2500 161.5000 Du        
  15374 ****       126.0000 132.2500 161.7500 Du        
  15375 ****       126.0000 132.2500 162.0000 Du        
  15376 ****       126.0000 132.2500 162.2500 Du        
  15377 ****       126.0000 132.2500 162.5000 Du        
  15378 ****       126.0000 132.2500 162.7500 Du        
  15379 ****       126.0000 132.2500 163.0000 Du        
  15380 ****       126.0000 132.2500 163.2500 Du        
  15381 ****       126.0000 132.2500 163.5000 Du        
  15382 ****       126.0000 132.2500 163.7500 Du        
  15383 ****       126.0000 132.2500 164.0000 Du        
  15384 ****       126.0000 132.2500 164.2500 Du        
  15385 ****       126.0000 132.2500 164.5000 Du        
  15386 ****       126.0000 132.2500 164.7500 Du        
  15387 ****       126.0000 132.2500 165.0000 Du        
  15388 ****       126.0000 132.2500 165.2500 Du        
  15389 ****       126.0000 132.2500 165.5000 Du        
  15390 ****       126.0000 132.2500 165.7500 Du        
  15391 ****       126.0000 132.2500 166.0000 Du        
  15392 ****       126.0000 132.5000 160.7500 Du        
  15393 ****       126.0000 132.5000 161.0000 Du        
  15394 ****       126.0000 132.5000 161.2500 Du        
  15395 ****       126.0000 132.5000 161.5000 Du        
  15396 ****       126.0000 132.5000 161.7500 Du        
  15397 ****       126.0000 132.5000 162.0000 Du        
  15398 ****       126.0000 132.5000 162.2500 Du        
  15399 ****       126.0000 132.5000 162.5000 Du        
  15400 ****       126.0000 132.5000 162.7500 Du        
  15401 ****       126.0000 132.5000 163.0000 Du        
  15402 ****       126.0000 132.5000 163.2500 Du        
  15403 ****       126.0000 132.5000 163.5000 Du        
  15404 ****       126.0000 132.5000 163.7500 Du        
  15405 ****       126.0000 132.5000 164.0000 Du        
  15406 ****       126.0000 132.5000 164.2500 Du        
  15407 ****       126.0000 132.5000 164.5000 Du        
  15408 ****       126.0000 132.5000 164.7500 Du        
  15409 ****       126.0000 132.5000 165.0000 Du        
  15410 ****       126.0000 132.5000 165.2500 Du        
  15411 ****       126.0000 132.5000 165.5000 Du        
  15412 ****       126.0000 132.5000 165.7500 Du        
  15413 ****       126.0000 132.5000 166.0000 Du        
  15414 ****       126.0000 132.7500 160.2500 Du        
  15415 ****       126.0000 132.7500 160.5000 Du        
  15416 ****       126.0000 132.7500 160.7500 Du        
  15417 ****       126.0000 132.7500 161.0000 Du        
  15418 ****       126.0000 132.7500 161.2500 Du        
  15419 ****       126.0000 132.7500 161.5000 Du        
  15420 ****       126.0000 132.7500 161.7500 Du        
  15421 ****       126.0000 132.7500 162.0000 Du        
  15422 ****       126.0000 132.7500 162.2500 Du        
  15423 ****       126.0000 132.7500 162.5000 Du        
  15424 ****       126.0000 132.7500 162.7500 Du        
  15425 ****       126.0000 132.7500 163.0000 Du        
  15426 ****       126.0000 132.7500 163.2500 Du        
  15427 ****       126.0000 132.7500 163.5000 Du        
  15428 ****       126.0000 132.7500 163.7500 Du        
  15429 ****       126.0000 132.7500 164.0000 Du        
  15430 ****       126.0000 132.7500 164.2500 Du        
  15431 ****       126.0000 132.7500 164.5000 Du        
  15432 ****       126.0000 132.7500 164.7500 Du        
  15433 ****       126.0000 132.7500 165.0000 Du        
  15434 ****       126.0000 132.7500 165.2500 Du        
  15435 ****       126.0000 132.7500 165.5000 Du        
  15436 ****       126.0000 132.7500 165.7500 Du        
  15437 ****       126.0000 132.7500 166.0000 Du        
  15438 ****       126.0000 132.7500 166.2500 Du        
  15439 ****       126.0000 133.0000 160.2500 Du        
  15440 ****       126.0000 133.0000 160.5000 Du        
  15441 ****       126.0000 133.0000 160.7500 Du        
  15442 ****       126.0000 133.0000 161.0000 Du        
  15443 ****       126.0000 133.0000 161.2500 Du        
  15444 ****       126.0000 133.0000 161.5000 Du        
  15445 ****       126.0000 133.0000 161.7500 Du        
  15446 ****       126.0000 133.0000 162.0000 Du        
  15447 ****       126.0000 133.0000 162.2500 Du        
  15448 ****       126.0000 133.0000 162.5000 Du        
  15449 ****       126.0000 133.0000 162.7500 Du        
  15450 ****       126.0000 133.0000 163.0000 Du        
  15451 ****       126.0000 133.0000 163.2500 Du        
  15452 ****       126.0000 133.0000 163.5000 Du        
  15453 ****       126.0000 133.0000 163.7500 Du        
  15454 ****       126.0000 133.0000 164.0000 Du        
  15455 ****       126.0000 133.0000 164.2500 Du        
  15456 ****       126.0000 133.0000 164.5000 Du        
  15457 ****       126.0000 133.0000 164.7500 Du        
  15458 ****       126.0000 133.0000 165.0000 Du        
  15459 ****       126.0000 133.0000 165.2500 Du        
  15460 ****       126.0000 133.0000 165.5000 Du        
  15461 ****       126.0000 133.0000 165.7500 Du        
  15462 ****       126.0000 133.0000 166.0000 Du        
  15463 ****       126.0000 133.0000 166.2500 Du        
  15464 ****       126.0000 133.2500 159.7500 Du        
  15465 ****       126.0000 133.2500 160.0000 Du        
  15466 ****       126.0000 133.2500 160.2500 Du        
  15467 ****       126.0000 133.2500 160.5000 Du        
  15468 ****       126.0000 133.2500 160.7500 Du        
  15469 ****       126.0000 133.2500 161.0000 Du        
  15470 ****       126.0000 133.2500 161.2500 Du        
  15471 ****       126.0000 133.2500 161.5000 Du        
  15472 ****       126.0000 133.2500 161.7500 Du        
  15473 ****       126.0000 133.2500 162.0000 Du        
  15474 ****       126.0000 133.2500 162.2500 Du        
  15475 ****       126.0000 133.2500 162.5000 Du        
  15476 ****       126.0000 133.2500 162.7500 Du        
  15477 ****       126.0000 133.2500 163.0000 Du        
  15478 ****       126.0000 133.2500 163.2500 Du        
  15479 ****       126.0000 133.2500 163.5000 Du        
  15480 ****       126.0000 133.2500 163.7500 Du        
  15481 ****       126.0000 133.2500 164.0000 Du        
  15482 ****       126.0000 133.2500 164.2500 Du        
  15483 ****       126.0000 133.2500 164.5000 Du        
  15484 ****       126.0000 133.2500 164.7500 Du        
  15485 ****       126.0000 133.2500 165.0000 Du        
  15486 ****       126.0000 133.2500 165.2500 Du        
  15487 ****       126.0000 133.2500 165.5000 Du        
  15488 ****       126.0000 133.2500 165.7500 Du        
  15489 ****       126.0000 133.2500 166.0000 Du        
  15490 ****       126.0000 133.5000 159.5000 Du        
  15491 ****       126.0000 133.5000 159.7500 Du        
  15492 ****       126.0000 133.5000 160.0000 Du        
  15493 ****       126.0000 133.5000 160.2500 Du        
  15494 ****       126.0000 133.5000 160.5000 Du        
  15495 ****       126.0000 133.5000 160.7500 Du        
  15496 ****       126.0000 133.5000 161.0000 Du        
  15497 ****       126.0000 133.5000 161.2500 Du        
  15498 ****       126.0000 133.5000 161.5000 Du        
  15499 ****       126.0000 133.5000 161.7500 Du        
  15500 ****       126.0000 133.5000 162.0000 Du        
  15501 ****       126.0000 133.5000 162.2500 Du        
  15502 ****       126.0000 133.5000 164.2500 Du        
  15503 ****       126.0000 133.5000 164.5000 Du        
  15504 ****       126.0000 133.5000 164.7500 Du        
  15505 ****       126.0000 133.5000 165.0000 Du        
  15506 ****       126.0000 133.5000 165.2500 Du        
  15507 ****       126.0000 133.5000 165.5000 Du        
  15508 ****       126.0000 133.5000 165.7500 Du        
  15509 ****       126.0000 133.5000 166.0000 Du        
  15510 ****       126.0000 133.7500 158.7500 Du        
  15511 ****       126.0000 133.7500 159.0000 Du        
  15512 ****       126.0000 133.7500 159.2500 Du        
  15513 ****       126.0000 133.7500 159.5000 Du        
  15514 ****       126.0000 133.7500 159.7500 Du        
  15515 ****       126.0000 133.7500 160.0000 Du        
  15516 ****       126.0000 133.7500 160.2500 Du        
  15517 ****       126.0000 133.7500 160.5000 Du        
  15518 ****       126.0000 133.7500 160.7500 Du        
  15519 ****       126.0000 133.7500 161.0000 Du        
  15520 ****       126.0000 133.7500 161.2500 Du        
  15521 ****       126.0000 133.7500 161.5000 Du        
  15522 ****       126.0000 133.7500 161.7500 Du        
  15523 ****       126.0000 133.7500 164.7500 Du        
  15524 ****       126.0000 133.7500 165.0000 Du        
  15525 ****       126.0000 133.7500 165.2500 Du        
  15526 ****       126.0000 133.7500 165.5000 Du        
  15527 ****       126.0000 133.7500 165.7500 Du        
  15528 ****       126.0000 134.0000 158.2500 Du        
  15529 ****       126.0000 134.0000 158.5000 Du        
  15530 ****       126.0000 134.0000 158.7500 Du        
  15531 ****       126.0000 134.0000 159.0000 Du        
  15532 ****       126.0000 134.0000 159.2500 Du        
  15533 ****       126.0000 134.0000 159.5000 Du        
  15534 ****       126.0000 134.0000 159.7500 Du        
  15535 ****       126.0000 134.0000 160.0000 Du        
  15536 ****       126.0000 134.0000 160.2500 Du        
  15537 ****       126.0000 134.0000 160.5000 Du        
  15538 ****       126.0000 134.0000 160.7500 Du        
  15539 ****       126.0000 134.0000 161.0000 Du        
  15540 ****       126.0000 134.0000 161.2500 Du        
  15541 ****       126.0000 134.0000 165.2500 Du        
  15542 ****       126.0000 134.0000 165.5000 Du        
  15543 ****       126.0000 134.0000 165.7500 Du        
  15544 ****       126.0000 134.2500 158.0000 Du        
  15545 ****       126.0000 134.2500 158.2500 Du        
  15546 ****       126.0000 134.2500 158.5000 Du        
  15547 ****       126.0000 134.2500 158.7500 Du        
  15548 ****       126.0000 134.2500 159.0000 Du        
  15549 ****       126.0000 134.2500 159.2500 Du        
  15550 ****       126.0000 134.5000 156.7500 Du        
  15551 ****       126.0000 134.5000 157.5000 Du        
  15552 ****       126.0000 134.5000 157.7500 Du        
  15553 ****       126.0000 134.5000 158.5000 Du        
  15554 ****       126.0000 134.5000 158.7500 Du        
  15555 ****       126.0000 134.7500 156.5000 Du        
  15556 ****       126.0000 134.7500 156.7500 Du        
  15557 ****       126.0000 134.7500 157.0000 Du        
  15558 ****       126.0000 135.0000 156.5000 Du        
  15559 ****       126.0000 135.0000 156.7500 Du        
  15560 ****       126.0000 136.7500  95.2500 Du        
  15561 ****       126.0000 136.7500  95.5000 Du        
  15562 ****       126.0000 137.0000  95.0000 Du        
  15563 ****       126.0000 137.0000  95.2500 Du        
  15564 ****       126.0000 137.0000  95.5000 Du        
  15565 ****       126.0000 137.0000  95.7500 Du        
  15566 ****       126.0000 137.2500  94.7500 Du        
  15567 ****       126.0000 137.2500  95.0000 Du        
  15568 ****       126.0000 137.2500  95.2500 Du        
  15569 ****       126.0000 137.2500  95.5000 Du        
  15570 ****       126.0000 137.2500  95.7500 Du        
  15571 ****       126.0000 137.2500  96.0000 Du        
  15572 ****       126.0000 137.5000  94.7500 Du        
  15573 ****       126.0000 137.5000  95.0000 Du        
  15574 ****       126.0000 137.5000  95.2500 Du        
  15575 ****       126.0000 137.5000  95.5000 Du        
  15576 ****       126.0000 137.5000  95.7500 Du        
  15577 ****       126.0000 137.5000  96.0000 Du        
  15578 ****       126.0000 137.5000  96.2500 Du        
  15579 ****       126.0000 137.7500  94.2500 Du        
  15580 ****       126.0000 137.7500  94.5000 Du        
  15581 ****       126.0000 137.7500  94.7500 Du        
  15582 ****       126.0000 137.7500  95.0000 Du        
  15583 ****       126.0000 137.7500  95.2500 Du        
  15584 ****       126.0000 137.7500  95.5000 Du        
  15585 ****       126.0000 137.7500  95.7500 Du        
  15586 ****       126.0000 137.7500  96.0000 Du        
  15587 ****       126.0000 137.7500  96.2500 Du        
  15588 ****       126.0000 137.7500  96.5000 Du        
  15589 ****       126.0000 138.0000  94.0000 Du        
  15590 ****       126.0000 138.0000  94.2500 Du        
  15591 ****       126.0000 138.0000  94.5000 Du        
  15592 ****       126.0000 138.0000  94.7500 Du        
  15593 ****       126.0000 138.0000  95.0000 Du        
  15594 ****       126.0000 138.0000  95.2500 Du        
  15595 ****       126.0000 138.0000  95.5000 Du        
  15596 ****       126.0000 138.0000  95.7500 Du        
  15597 ****       126.0000 138.0000  96.0000 Du        
  15598 ****       126.0000 138.0000  96.2500 Du        
  15599 ****       126.0000 138.0000  96.5000 Du        
  15600 ****       126.0000 138.2500  93.2500 Du        
  15601 ****       126.0000 138.2500  93.5000 Du        
  15602 ****       126.0000 138.2500  93.7500 Du        
  15603 ****       126.0000 138.2500  94.0000 Du        
  15604 ****       126.0000 138.2500  94.2500 Du        
  15605 ****       126.0000 138.2500  94.5000 Du        
  15606 ****       126.0000 138.2500  94.7500 Du        
  15607 ****       126.0000 138.2500  95.0000 Du        
  15608 ****       126.0000 138.2500  95.2500 Du        
  15609 ****       126.0000 138.2500  95.5000 Du        
  15610 ****       126.0000 138.2500  95.7500 Du        
  15611 ****       126.0000 138.2500  96.0000 Du        
  15612 ****       126.0000 138.2500  96.2500 Du        
  15613 ****       126.0000 138.2500  96.5000 Du        
  15614 ****       126.0000 138.2500  96.7500 Du        
  15615 ****       126.0000 138.5000  91.7500 Du        
  15616 ****       126.0000 138.5000  92.0000 Du        
  15617 ****       126.0000 138.5000  92.2500 Du        
  15618 ****       126.0000 138.5000  92.5000 Du        
  15619 ****       126.0000 138.5000  92.7500 Du        
  15620 ****       126.0000 138.5000  93.0000 Du        
  15621 ****       126.0000 138.5000  93.2500 Du        
  15622 ****       126.0000 138.5000  93.5000 Du        
  15623 ****       126.0000 138.5000  93.7500 Du        
  15624 ****       126.0000 138.5000  94.0000 Du        
  15625 ****       126.0000 138.5000  94.2500 Du        
  15626 ****       126.0000 138.5000  94.5000 Du        
  15627 ****       126.0000 138.5000  94.7500 Du        
  15628 ****       126.0000 138.5000  95.0000 Du        
  15629 ****       126.0000 138.5000  95.2500 Du        
  15630 ****       126.0000 138.5000  95.5000 Du        
  15631 ****       126.0000 138.5000  95.7500 Du        
  15632 ****       126.0000 138.5000  96.0000 Du        
  15633 ****       126.0000 138.5000  96.2500 Du        
  15634 ****       126.0000 138.5000  96.5000 Du        
  15635 ****       126.0000 138.5000  96.7500 Du        
  15636 ****       126.0000 138.7500  91.5000 Du        
  15637 ****       126.0000 138.7500  91.7500 Du        
  15638 ****       126.0000 138.7500  92.0000 Du        
  15639 ****       126.0000 138.7500  92.2500 Du        
  15640 ****       126.0000 138.7500  92.5000 Du        
  15641 ****       126.0000 138.7500  92.7500 Du        
  15642 ****       126.0000 138.7500  93.0000 Du        
  15643 ****       126.0000 138.7500  93.2500 Du        
  15644 ****       126.0000 138.7500  93.5000 Du        
  15645 ****       126.0000 138.7500  93.7500 Du        
  15646 ****       126.0000 138.7500  94.0000 Du        
  15647 ****       126.0000 138.7500  94.2500 Du        
  15648 ****       126.0000 138.7500  94.5000 Du        
  15649 ****       126.0000 138.7500  94.7500 Du        
  15650 ****       126.0000 138.7500  95.0000 Du        
  15651 ****       126.0000 138.7500  95.2500 Du        
  15652 ****       126.0000 138.7500  95.5000 Du        
  15653 ****       126.0000 138.7500  95.7500 Du        
  15654 ****       126.0000 138.7500  96.0000 Du        
  15655 ****       126.0000 138.7500  96.2500 Du        
  15656 ****       126.0000 138.7500  96.5000 Du        
  15657 ****       126.0000 138.7500  96.7500 Du        
  15658 ****       126.0000 138.7500  97.0000 Du        
  15659 ****       126.0000 139.0000  91.5000 Du        
  15660 ****       126.0000 139.0000  91.7500 Du        
  15661 ****       126.0000 139.0000  92.0000 Du        
  15662 ****       126.0000 139.0000  92.2500 Du        
  15663 ****       126.0000 139.0000  92.5000 Du        
  15664 ****       126.0000 139.0000  92.7500 Du        
  15665 ****       126.0000 139.0000  93.0000 Du        
  15666 ****       126.0000 139.0000  93.2500 Du        
  15667 ****       126.0000 139.0000  93.5000 Du        
  15668 ****       126.0000 139.0000  93.7500 Du        
  15669 ****       126.0000 139.0000  94.0000 Du        
  15670 ****       126.0000 139.0000  94.2500 Du        
  15671 ****       126.0000 139.0000  94.5000 Du        
  15672 ****       126.0000 139.0000  94.7500 Du        
  15673 ****       126.0000 139.0000  95.0000 Du        
  15674 ****       126.0000 139.0000  95.2500 Du        
  15675 ****       126.0000 139.0000  95.5000 Du        
  15676 ****       126.0000 139.0000  95.7500 Du        
  15677 ****       126.0000 139.0000  96.0000 Du        
  15678 ****       126.0000 139.0000  96.2500 Du        
  15679 ****       126.0000 139.0000  96.5000 Du        
  15680 ****       126.0000 139.0000  96.7500 Du        
  15681 ****       126.0000 139.0000  97.0000 Du        
  15682 ****       126.0000 139.0000  97.2500 Du        
  15683 ****       126.0000 139.2500  91.2500 Du        
  15684 ****       126.0000 139.2500  91.5000 Du        
  15685 ****       126.0000 139.2500  91.7500 Du        
  15686 ****       126.0000 139.2500  92.0000 Du        
  15687 ****       126.0000 139.2500  92.2500 Du        
  15688 ****       126.0000 139.2500  92.5000 Du        
  15689 ****       126.0000 139.2500  92.7500 Du        
  15690 ****       126.0000 139.2500  93.0000 Du        
  15691 ****       126.0000 139.2500  94.0000 Du        
  15692 ****       126.0000 139.2500  94.2500 Du        
  15693 ****       126.0000 139.2500  94.7500 Du        
  15694 ****       126.0000 139.2500  95.0000 Du        
  15695 ****       126.0000 139.2500  95.2500 Du        
  15696 ****       126.0000 139.2500  95.5000 Du        
  15697 ****       126.0000 139.2500  95.7500 Du        
  15698 ****       126.0000 139.2500  96.0000 Du        
  15699 ****       126.0000 139.2500  96.2500 Du        
  15700 ****       126.0000 139.2500  96.5000 Du        
  15701 ****       126.0000 139.2500  96.7500 Du        
  15702 ****       126.0000 139.2500  97.0000 Du        
  15703 ****       126.0000 139.2500  97.2500 Du        
  15704 ****       126.0000 139.5000  91.2500 Du        
  15705 ****       126.0000 139.5000  91.7500 Du        
  15706 ****       126.0000 139.5000  96.0000 Du        
  15707 ****       126.0000 139.5000  96.2500 Du        
  15708 ****       126.0000 139.5000  96.5000 Du        
  15709 ****       126.0000 139.5000  96.7500 Du        
  15710 ****       126.0000 139.5000  97.0000 Du        
  15711 ****       126.0000 139.5000  97.2500 Du        
  15712 ****       126.0000 139.5000  97.5000 Du        
  15713 ****       126.0000 139.7500  91.2500 Du        
  15714 ****       126.0000 139.7500  96.0000 Du        
  15715 ****       126.0000 139.7500  96.2500 Du        
  15716 ****       126.0000 139.7500  96.5000 Du        
  15717 ****       126.0000 139.7500  96.7500 Du        
  15718 ****       126.0000 139.7500  97.0000 Du        
  15719 ****       126.0000 139.7500  97.2500 Du        
  15720 ****       126.0000 139.7500  97.5000 Du        
  15721 ****       126.0000 139.7500  97.7500 Du        
  15722 ****       126.0000 140.0000  91.2500 Du        
  15723 ****       126.0000 140.0000  96.0000 Du        
  15724 ****       126.0000 140.0000  96.2500 Du        
  15725 ****       126.0000 140.0000  96.5000 Du        
  15726 ****       126.0000 140.0000  96.7500 Du        
  15727 ****       126.0000 140.0000  97.0000 Du        
  15728 ****       126.0000 140.0000  97.2500 Du        
  15729 ****       126.0000 140.0000  97.5000 Du        
  15730 ****       126.0000 140.0000  97.7500 Du        
  15731 ****       126.0000 140.0000  98.0000 Du        
  15732 ****       126.0000 140.2500  96.2500 Du        
  15733 ****       126.0000 140.2500  96.5000 Du        
  15734 ****       126.0000 140.2500  96.7500 Du        
  15735 ****       126.0000 140.2500  97.0000 Du        
  15736 ****       126.0000 140.2500  97.2500 Du        
  15737 ****       126.0000 140.2500  97.5000 Du        
  15738 ****       126.0000 140.2500  97.7500 Du        
  15739 ****       126.0000 140.2500  98.0000 Du        
  15740 ****       126.0000 140.5000  96.5000 Du        
  15741 ****       126.0000 140.5000  96.7500 Du        
  15742 ****       126.0000 140.5000  97.0000 Du        
  15743 ****       126.0000 140.5000  97.2500 Du        
  15744 ****       126.0000 140.5000  97.5000 Du        
  15745 ****       126.0000 140.5000  97.7500 Du        
  15746 ****       126.0000 140.5000  98.0000 Du        
  15747 ****       126.0000 140.5000  98.2500 Du        
  15748 ****       126.0000 140.5000  98.5000 Du        
  15749 ****       126.0000 140.7500  96.5000 Du        
  15750 ****       126.0000 140.7500  96.7500 Du        
  15751 ****       126.0000 140.7500  97.0000 Du        
  15752 ****       126.0000 140.7500  97.2500 Du        
  15753 ****       126.0000 140.7500  97.5000 Du        
  15754 ****       126.0000 140.7500  97.7500 Du        
  15755 ****       126.0000 140.7500  98.0000 Du        
  15756 ****       126.0000 140.7500  98.2500 Du        
  15757 ****       126.0000 140.7500  98.5000 Du        
  15758 ****       126.0000 140.7500  98.7500 Du        
  15759 ****       126.0000 141.0000  96.5000 Du        
  15760 ****       126.0000 141.0000  96.7500 Du        
  15761 ****       126.0000 141.0000  97.0000 Du        
  15762 ****       126.0000 141.0000  97.2500 Du        
  15763 ****       126.0000 141.0000  97.5000 Du        
  15764 ****       126.0000 141.0000  97.7500 Du        
  15765 ****       126.0000 141.0000  98.0000 Du        
  15766 ****       126.0000 141.0000  98.2500 Du        
  15767 ****       126.0000 141.0000  98.5000 Du        
  15768 ****       126.0000 141.0000  98.7500 Du        
  15769 ****       126.0000 141.2500  96.5000 Du        
  15770 ****       126.0000 141.2500  96.7500 Du        
  15771 ****       126.0000 141.2500  97.0000 Du        
  15772 ****       126.0000 141.2500  97.2500 Du        
  15773 ****       126.0000 141.2500  97.5000 Du        
  15774 ****       126.0000 146.2500 118.7500 Du        
  15775 ****       126.0000 146.2500 119.0000 Du        
  15776 ****       126.0000 146.2500 119.2500 Du        
  15777 ****       126.0000 146.5000 118.7500 Du        
  15778 ****       126.0000 146.5000 119.0000 Du        
  15779 ****       126.0000 146.5000 119.2500 Du        
  15780 ****       126.0000 146.7500 118.7500 Du        
  15781 ****       126.0000 146.7500 119.0000 Du        
  15782 ****       126.0000 146.7500 119.2500 Du        
  15783 ****       126.0000 147.0000 118.7500 Du        
  15784 ****       126.0000 147.0000 119.0000 Du        
  15785 ****       126.0000 147.0000 119.2500 Du        
  15786 ****       126.0000 147.2500 119.0000 Du        
  15787 ****       126.0000 147.2500 119.2500 Du        
  15788 ****       126.0000 154.5000 157.5000 Du        
  15789 ****       126.0000 154.5000 157.7500 Du        
  15790 ****       126.0000 154.5000 158.0000 Du        
  15791 ****       126.0000 154.5000 158.2500 Du        
  15792 ****       126.0000 154.5000 158.5000 Du        
  15793 ****       126.0000 154.7500 157.5000 Du        
  15794 ****       126.0000 154.7500 157.7500 Du        
  15795 ****       126.0000 154.7500 158.0000 Du        
  15796 ****       126.0000 154.7500 158.2500 Du        
  15797 ****       126.0000 154.7500 158.5000 Du        
  15798 ****       126.0000 154.7500 158.7500 Du        
  15799 ****       126.0000 155.0000 157.5000 Du        
  15800 ****       126.0000 155.0000 157.7500 Du        
  15801 ****       126.0000 155.0000 158.0000 Du        
  15802 ****       126.0000 155.0000 158.2500 Du        
  15803 ****       126.0000 155.0000 158.5000 Du        
  15804 ****       126.0000 155.0000 158.7500 Du        
  15805 ****       126.0000 155.0000 159.0000 Du        
  15806 ****       126.0000 155.2500 157.7500 Du        
  15807 ****       126.0000 155.2500 158.0000 Du        
  15808 ****       126.0000 155.2500 158.2500 Du        
  15809 ****       126.0000 155.2500 158.5000 Du        
  15810 ****       126.0000 155.2500 158.7500 Du        
  15811 ****       126.0000 155.2500 159.0000 Du        
  15812 ****       126.0000 155.5000 157.7500 Du        
  15813 ****       126.0000 155.5000 158.0000 Du        
  15814 ****       126.0000 155.5000 158.2500 Du        
  15815 ****       126.0000 155.5000 158.5000 Du        
  15816 ****       126.0000 155.5000 158.7500 Du        
  15817 ****       126.0000 155.5000 159.0000 Du        
  15818 ****       126.0000 155.5000 159.2500 Du        
  15819 ****       126.0000 155.7500 158.0000 Du        
  15820 ****       126.0000 155.7500 158.2500 Du        
  15821 ****       126.0000 155.7500 158.5000 Du        
  15822 ****       126.0000 155.7500 158.7500 Du        
  15823 ****       126.0000 155.7500 159.0000 Du        
  15824 ****       126.0000 155.7500 159.2500 Du        
  15825 ****       126.0000 155.7500 159.5000 Du        
  15826 ****       126.0000 156.0000 158.0000 Du        
  15827 ****       126.0000 156.0000 158.2500 Du        
  15828 ****       126.0000 156.0000 158.5000 Du        
  15829 ****       126.0000 156.0000 158.7500 Du        
  15830 ****       126.0000 156.0000 159.0000 Du        
  15831 ****       126.0000 156.0000 159.2500 Du        
  15832 ****       126.0000 156.0000 159.5000 Du        
  15833 ****       126.0000 156.0000 159.7500 Du        
  15834 ****       126.0000 156.2500 158.0000 Du        
  15835 ****       126.0000 156.2500 158.2500 Du        
  15836 ****       126.0000 156.2500 158.5000 Du        
  15837 ****       126.0000 156.2500 158.7500 Du        
  15838 ****       126.0000 156.2500 159.0000 Du        
  15839 ****       126.0000 156.2500 159.2500 Du        
  15840 ****       126.0000 156.2500 159.5000 Du        
  15841 ****       126.0000 156.2500 159.7500 Du        
  15842 ****       126.0000 156.2500 160.0000 Du        
  15843 ****       126.0000 156.5000 158.2500 Du        
  15844 ****       126.0000 156.5000 158.5000 Du        
  15845 ****       126.0000 156.5000 158.7500 Du        
  15846 ****       126.0000 156.5000 159.0000 Du        
  15847 ****       126.0000 156.5000 159.2500 Du        
  15848 ****       126.0000 156.5000 159.5000 Du        
  15849 ****       126.0000 156.5000 159.7500 Du        
  15850 ****       126.0000 156.5000 160.0000 Du        
  15851 ****       126.0000 156.7500 158.5000 Du        
  15852 ****       126.0000 156.7500 158.7500 Du        
  15853 ****       126.0000 156.7500 159.0000 Du        
  15854 ****       126.0000 156.7500 159.2500 Du        
  15855 ****       126.0000 159.2500 103.2500 Du        
  15856 ****       126.2500 121.0000 156.0000 Du        
  15857 ****       126.2500 121.0000 156.2500 Du        
  15858 ****       126.2500 121.0000 156.5000 Du        
  15859 ****       126.2500 121.0000 156.7500 Du        
  15860 ****       126.2500 121.0000 157.0000 Du        
  15861 ****       126.2500 121.0000 157.2500 Du        
  15862 ****       126.2500 121.0000 164.5000 Du        
  15863 ****       126.2500 121.0000 164.7500 Du        
  15864 ****       126.2500 121.0000 165.0000 Du        
  15865 ****       126.2500 121.2500 156.0000 Du        
  15866 ****       126.2500 121.2500 156.2500 Du        
  15867 ****       126.2500 121.2500 156.5000 Du        
  15868 ****       126.2500 121.2500 156.7500 Du        
  15869 ****       126.2500 121.2500 157.0000 Du        
  15870 ****       126.2500 121.2500 157.2500 Du        
  15871 ****       126.2500 121.2500 164.5000 Du        
  15872 ****       126.2500 121.2500 164.7500 Du        
  15873 ****       126.2500 121.2500 165.0000 Du        
  15874 ****       126.2500 121.2500 165.2500 Du        
  15875 ****       126.2500 121.5000 156.0000 Du        
  15876 ****       126.2500 121.5000 156.2500 Du        
  15877 ****       126.2500 121.5000 156.5000 Du        
  15878 ****       126.2500 121.5000 156.7500 Du        
  15879 ****       126.2500 121.5000 157.0000 Du        
  15880 ****       126.2500 121.5000 157.2500 Du        
  15881 ****       126.2500 121.5000 157.5000 Du        
  15882 ****       126.2500 121.5000 164.5000 Du        
  15883 ****       126.2500 121.5000 164.7500 Du        
  15884 ****       126.2500 121.5000 165.0000 Du        
  15885 ****       126.2500 121.5000 165.2500 Du        
  15886 ****       126.2500 121.7500 155.7500 Du        
  15887 ****       126.2500 121.7500 156.0000 Du        
  15888 ****       126.2500 121.7500 156.2500 Du        
  15889 ****       126.2500 121.7500 156.5000 Du        
  15890 ****       126.2500 121.7500 156.7500 Du        
  15891 ****       126.2500 121.7500 157.0000 Du        
  15892 ****       126.2500 121.7500 157.2500 Du        
  15893 ****       126.2500 121.7500 157.5000 Du        
  15894 ****       126.2500 121.7500 164.5000 Du        
  15895 ****       126.2500 121.7500 164.7500 Du        
  15896 ****       126.2500 121.7500 165.0000 Du        
  15897 ****       126.2500 121.7500 165.2500 Du        
  15898 ****       126.2500 122.0000 155.7500 Du        
  15899 ****       126.2500 122.0000 156.0000 Du        
  15900 ****       126.2500 122.0000 156.2500 Du        
  15901 ****       126.2500 122.0000 156.5000 Du        
  15902 ****       126.2500 122.0000 156.7500 Du        
  15903 ****       126.2500 122.0000 157.0000 Du        
  15904 ****       126.2500 122.0000 157.2500 Du        
  15905 ****       126.2500 122.0000 157.5000 Du        
  15906 ****       126.2500 122.2500 156.0000 Du        
  15907 ****       126.2500 122.2500 156.2500 Du        
  15908 ****       126.2500 122.2500 156.5000 Du        
  15909 ****       126.2500 122.2500 156.7500 Du        
  15910 ****       126.2500 122.2500 157.0000 Du        
  15911 ****       126.2500 122.2500 157.2500 Du        
  15912 ****       126.2500 122.2500 157.5000 Du        
  15913 ****       126.2500 122.2500 157.7500 Du        
  15914 ****       126.2500 122.5000 156.7500 Du        
  15915 ****       126.2500 122.5000 157.0000 Du        
  15916 ****       126.2500 122.5000 157.2500 Du        
  15917 ****       126.2500 122.7500 157.0000 Du        
  15918 ****       126.2500 122.7500 157.2500 Du        
  15919 ****       126.2500 123.7500 158.0000 Du        
  15920 ****       126.2500 123.7500 158.2500 Du        
  15921 ****       126.2500 123.7500 158.5000 Du        
  15922 ****       126.2500 124.0000 158.0000 Du        
  15923 ****       126.2500 124.0000 158.2500 Du        
  15924 ****       126.2500 124.0000 158.5000 Du        
  15925 ****       126.2500 124.0000 158.7500 Du        
  15926 ****       126.2500 124.2500 158.2500 Du        
  15927 ****       126.2500 124.2500 158.5000 Du        
  15928 ****       126.2500 124.2500 158.7500 Du        
  15929 ****       126.2500 130.0000 163.0000 Du        
  15930 ****       126.2500 130.0000 163.2500 Du        
  15931 ****       126.2500 130.0000 163.5000 Du        
  15932 ****       126.2500 130.0000 163.7500 Du        
  15933 ****       126.2500 130.2500 163.0000 Du        
  15934 ****       126.2500 130.2500 163.2500 Du        
  15935 ****       126.2500 130.2500 163.5000 Du        
  15936 ****       126.2500 130.2500 163.7500 Du        
  15937 ****       126.2500 130.2500 164.0000 Du        
  15938 ****       126.2500 130.5000 163.0000 Du        
  15939 ****       126.2500 130.5000 163.2500 Du        
  15940 ****       126.2500 130.5000 163.5000 Du        
  15941 ****       126.2500 130.5000 163.7500 Du        
  15942 ****       126.2500 130.5000 164.0000 Du        
  15943 ****       126.2500 130.5000 164.2500 Du        
  15944 ****       126.2500 130.7500 162.7500 Du        
  15945 ****       126.2500 130.7500 163.0000 Du        
  15946 ****       126.2500 130.7500 163.2500 Du        
  15947 ****       126.2500 130.7500 163.5000 Du        
  15948 ****       126.2500 130.7500 163.7500 Du        
  15949 ****       126.2500 130.7500 164.0000 Du        
  15950 ****       126.2500 130.7500 164.2500 Du        
  15951 ****       126.2500 131.0000 162.7500 Du        
  15952 ****       126.2500 131.0000 163.0000 Du        
  15953 ****       126.2500 131.0000 163.2500 Du        
  15954 ****       126.2500 131.0000 163.5000 Du        
  15955 ****       126.2500 131.0000 163.7500 Du        
  15956 ****       126.2500 131.0000 164.0000 Du        
  15957 ****       126.2500 131.0000 164.2500 Du        
  15958 ****       126.2500 131.0000 164.5000 Du        
  15959 ****       126.2500 131.2500 162.0000 Du        
  15960 ****       126.2500 131.2500 162.2500 Du        
  15961 ****       126.2500 131.2500 162.7500 Du        
  15962 ****       126.2500 131.2500 163.0000 Du        
  15963 ****       126.2500 131.2500 163.2500 Du        
  15964 ****       126.2500 131.2500 163.5000 Du        
  15965 ****       126.2500 131.2500 163.7500 Du        
  15966 ****       126.2500 131.2500 164.0000 Du        
  15967 ****       126.2500 131.2500 164.2500 Du        
  15968 ****       126.2500 131.2500 164.5000 Du        
  15969 ****       126.2500 131.2500 164.7500 Du        
  15970 ****       126.2500 131.5000 162.5000 Du        
  15971 ****       126.2500 131.5000 162.7500 Du        
  15972 ****       126.2500 131.5000 163.0000 Du        
  15973 ****       126.2500 131.5000 163.2500 Du        
  15974 ****       126.2500 131.5000 163.5000 Du        
  15975 ****       126.2500 131.5000 163.7500 Du        
  15976 ****       126.2500 131.5000 164.0000 Du        
  15977 ****       126.2500 131.5000 164.2500 Du        
  15978 ****       126.2500 131.5000 164.5000 Du        
  15979 ****       126.2500 131.5000 164.7500 Du        
  15980 ****       126.2500 131.5000 165.0000 Du        
  15981 ****       126.2500 131.7500 161.7500 Du        
  15982 ****       126.2500 131.7500 162.0000 Du        
  15983 ****       126.2500 131.7500 162.2500 Du        
  15984 ****       126.2500 131.7500 162.5000 Du        
  15985 ****       126.2500 131.7500 162.7500 Du        
  15986 ****       126.2500 131.7500 163.0000 Du        
  15987 ****       126.2500 131.7500 163.2500 Du        
  15988 ****       126.2500 131.7500 163.5000 Du        
  15989 ****       126.2500 131.7500 163.7500 Du        
  15990 ****       126.2500 131.7500 164.0000 Du        
  15991 ****       126.2500 131.7500 164.2500 Du        
  15992 ****       126.2500 131.7500 164.5000 Du        
  15993 ****       126.2500 131.7500 164.7500 Du        
  15994 ****       126.2500 131.7500 165.0000 Du        
  15995 ****       126.2500 131.7500 165.2500 Du        
  15996 ****       126.2500 132.0000 161.2500 Du        
  15997 ****       126.2500 132.0000 161.5000 Du        
  15998 ****       126.2500 132.0000 161.7500 Du        
  15999 ****       126.2500 132.0000 162.0000 Du        
  16000 ****       126.2500 132.0000 162.2500 Du        
  16001 ****       126.2500 132.0000 162.5000 Du        
  16002 ****       126.2500 132.0000 162.7500 Du        
  16003 ****       126.2500 132.0000 163.0000 Du        
  16004 ****       126.2500 132.0000 163.2500 Du        
  16005 ****       126.2500 132.0000 163.5000 Du        
  16006 ****       126.2500 132.0000 163.7500 Du        
  16007 ****       126.2500 132.0000 164.0000 Du        
  16008 ****       126.2500 132.0000 164.2500 Du        
  16009 ****       126.2500 132.0000 164.5000 Du        
  16010 ****       126.2500 132.0000 164.7500 Du        
  16011 ****       126.2500 132.0000 165.0000 Du        
  16012 ****       126.2500 132.0000 165.2500 Du        
  16013 ****       126.2500 132.0000 165.5000 Du        
  16014 ****       126.2500 132.2500 160.7500 Du        
  16015 ****       126.2500 132.2500 161.0000 Du        
  16016 ****       126.2500 132.2500 161.2500 Du        
  16017 ****       126.2500 132.2500 161.5000 Du        
  16018 ****       126.2500 132.2500 161.7500 Du        
  16019 ****       126.2500 132.2500 162.0000 Du        
  16020 ****       126.2500 132.2500 162.2500 Du        
  16021 ****       126.2500 132.2500 162.5000 Du        
  16022 ****       126.2500 132.2500 162.7500 Du        
  16023 ****       126.2500 132.2500 163.0000 Du        
  16024 ****       126.2500 132.2500 163.2500 Du        
  16025 ****       126.2500 132.2500 163.5000 Du        
  16026 ****       126.2500 132.2500 163.7500 Du        
  16027 ****       126.2500 132.2500 164.0000 Du        
  16028 ****       126.2500 132.2500 164.2500 Du        
  16029 ****       126.2500 132.2500 164.5000 Du        
  16030 ****       126.2500 132.2500 164.7500 Du        
  16031 ****       126.2500 132.2500 165.0000 Du        
  16032 ****       126.2500 132.2500 165.2500 Du        
  16033 ****       126.2500 132.2500 165.5000 Du        
  16034 ****       126.2500 132.2500 165.7500 Du        
  16035 ****       126.2500 132.2500 166.0000 Du        
  16036 ****       126.2500 132.5000 160.5000 Du        
  16037 ****       126.2500 132.5000 160.7500 Du        
  16038 ****       126.2500 132.5000 161.0000 Du        
  16039 ****       126.2500 132.5000 161.2500 Du        
  16040 ****       126.2500 132.5000 161.5000 Du        
  16041 ****       126.2500 132.5000 161.7500 Du        
  16042 ****       126.2500 132.5000 162.0000 Du        
  16043 ****       126.2500 132.5000 162.2500 Du        
  16044 ****       126.2500 132.5000 162.5000 Du        
  16045 ****       126.2500 132.5000 162.7500 Du        
  16046 ****       126.2500 132.5000 163.0000 Du        
  16047 ****       126.2500 132.5000 163.2500 Du        
  16048 ****       126.2500 132.5000 163.5000 Du        
  16049 ****       126.2500 132.5000 163.7500 Du        
  16050 ****       126.2500 132.5000 164.0000 Du        
  16051 ****       126.2500 132.5000 164.2500 Du        
  16052 ****       126.2500 132.5000 164.5000 Du        
  16053 ****       126.2500 132.5000 164.7500 Du        
  16054 ****       126.2500 132.5000 165.0000 Du        
  16055 ****       126.2500 132.5000 165.2500 Du        
  16056 ****       126.2500 132.5000 165.5000 Du        
  16057 ****       126.2500 132.5000 165.7500 Du        
  16058 ****       126.2500 132.5000 166.0000 Du        
  16059 ****       126.2500 132.7500 160.0000 Du        
  16060 ****       126.2500 132.7500 160.2500 Du        
  16061 ****       126.2500 132.7500 160.5000 Du        
  16062 ****       126.2500 132.7500 160.7500 Du        
  16063 ****       126.2500 132.7500 161.0000 Du        
  16064 ****       126.2500 132.7500 161.2500 Du        
  16065 ****       126.2500 132.7500 161.5000 Du        
  16066 ****       126.2500 132.7500 161.7500 Du        
  16067 ****       126.2500 132.7500 162.0000 Du        
  16068 ****       126.2500 132.7500 162.2500 Du        
  16069 ****       126.2500 132.7500 162.5000 Du        
  16070 ****       126.2500 132.7500 162.7500 Du        
  16071 ****       126.2500 132.7500 163.0000 Du        
  16072 ****       126.2500 132.7500 163.2500 Du        
  16073 ****       126.2500 132.7500 163.5000 Du        
  16074 ****       126.2500 132.7500 163.7500 Du        
  16075 ****       126.2500 132.7500 164.0000 Du        
  16076 ****       126.2500 132.7500 164.2500 Du        
  16077 ****       126.2500 132.7500 164.5000 Du        
  16078 ****       126.2500 132.7500 164.7500 Du        
  16079 ****       126.2500 132.7500 165.0000 Du        
  16080 ****       126.2500 132.7500 165.2500 Du        
  16081 ****       126.2500 132.7500 165.5000 Du        
  16082 ****       126.2500 132.7500 165.7500 Du        
  16083 ****       126.2500 132.7500 166.0000 Du        
  16084 ****       126.2500 132.7500 166.2500 Du        
  16085 ****       126.2500 133.0000 159.7500 Du        
  16086 ****       126.2500 133.0000 160.0000 Du        
  16087 ****       126.2500 133.0000 160.2500 Du        
  16088 ****       126.2500 133.0000 160.5000 Du        
  16089 ****       126.2500 133.0000 160.7500 Du        
  16090 ****       126.2500 133.0000 161.0000 Du        
  16091 ****       126.2500 133.0000 161.2500 Du        
  16092 ****       126.2500 133.0000 161.5000 Du        
  16093 ****       126.2500 133.0000 161.7500 Du        
  16094 ****       126.2500 133.0000 162.0000 Du        
  16095 ****       126.2500 133.0000 162.2500 Du        
  16096 ****       126.2500 133.0000 162.5000 Du        
  16097 ****       126.2500 133.0000 162.7500 Du        
  16098 ****       126.2500 133.0000 163.0000 Du        
  16099 ****       126.2500 133.0000 163.2500 Du        
  16100 ****       126.2500 133.0000 163.5000 Du        
  16101 ****       126.2500 133.0000 163.7500 Du        
  16102 ****       126.2500 133.0000 164.0000 Du        
  16103 ****       126.2500 133.0000 164.2500 Du        
  16104 ****       126.2500 133.0000 164.5000 Du        
  16105 ****       126.2500 133.0000 164.7500 Du        
  16106 ****       126.2500 133.0000 165.0000 Du        
  16107 ****       126.2500 133.0000 165.2500 Du        
  16108 ****       126.2500 133.0000 165.5000 Du        
  16109 ****       126.2500 133.0000 165.7500 Du        
  16110 ****       126.2500 133.0000 166.0000 Du        
  16111 ****       126.2500 133.2500 159.7500 Du        
  16112 ****       126.2500 133.2500 160.0000 Du        
  16113 ****       126.2500 133.2500 160.2500 Du        
  16114 ****       126.2500 133.2500 160.5000 Du        
  16115 ****       126.2500 133.2500 160.7500 Du        
  16116 ****       126.2500 133.2500 161.0000 Du        
  16117 ****       126.2500 133.2500 161.2500 Du        
  16118 ****       126.2500 133.2500 161.5000 Du        
  16119 ****       126.2500 133.2500 161.7500 Du        
  16120 ****       126.2500 133.2500 162.0000 Du        
  16121 ****       126.2500 133.2500 162.2500 Du        
  16122 ****       126.2500 133.2500 162.5000 Du        
  16123 ****       126.2500 133.2500 162.7500 Du        
  16124 ****       126.2500 133.2500 163.0000 Du        
  16125 ****       126.2500 133.2500 163.2500 Du        
  16126 ****       126.2500 133.2500 163.5000 Du        
  16127 ****       126.2500 133.2500 163.7500 Du        
  16128 ****       126.2500 133.2500 164.0000 Du        
  16129 ****       126.2500 133.2500 164.2500 Du        
  16130 ****       126.2500 133.2500 164.5000 Du        
  16131 ****       126.2500 133.2500 164.7500 Du        
  16132 ****       126.2500 133.2500 165.0000 Du        
  16133 ****       126.2500 133.2500 165.2500 Du        
  16134 ****       126.2500 133.2500 165.5000 Du        
  16135 ****       126.2500 133.2500 165.7500 Du        
  16136 ****       126.2500 133.2500 166.0000 Du        
  16137 ****       126.2500 133.5000 159.0000 Du        
  16138 ****       126.2500 133.5000 159.2500 Du        
  16139 ****       126.2500 133.5000 159.5000 Du        
  16140 ****       126.2500 133.5000 159.7500 Du        
  16141 ****       126.2500 133.5000 160.0000 Du        
  16142 ****       126.2500 133.5000 160.2500 Du        
  16143 ****       126.2500 133.5000 160.5000 Du        
  16144 ****       126.2500 133.5000 160.7500 Du        
  16145 ****       126.2500 133.5000 161.0000 Du        
  16146 ****       126.2500 133.5000 161.2500 Du        
  16147 ****       126.2500 133.5000 161.5000 Du        
  16148 ****       126.2500 133.5000 161.7500 Du        
  16149 ****       126.2500 133.5000 162.0000 Du        
  16150 ****       126.2500 133.5000 162.2500 Du        
  16151 ****       126.2500 133.5000 164.0000 Du        
  16152 ****       126.2500 133.5000 164.2500 Du        
  16153 ****       126.2500 133.5000 164.5000 Du        
  16154 ****       126.2500 133.5000 164.7500 Du        
  16155 ****       126.2500 133.5000 165.0000 Du        
  16156 ****       126.2500 133.5000 165.2500 Du        
  16157 ****       126.2500 133.5000 165.5000 Du        
  16158 ****       126.2500 133.5000 165.7500 Du        
  16159 ****       126.2500 133.5000 166.0000 Du        
  16160 ****       126.2500 133.7500 158.5000 Du        
  16161 ****       126.2500 133.7500 158.7500 Du        
  16162 ****       126.2500 133.7500 159.0000 Du        
  16163 ****       126.2500 133.7500 159.2500 Du        
  16164 ****       126.2500 133.7500 159.5000 Du        
  16165 ****       126.2500 133.7500 159.7500 Du        
  16166 ****       126.2500 133.7500 160.0000 Du        
  16167 ****       126.2500 133.7500 160.2500 Du        
  16168 ****       126.2500 133.7500 160.5000 Du        
  16169 ****       126.2500 133.7500 160.7500 Du        
  16170 ****       126.2500 133.7500 161.0000 Du        
  16171 ****       126.2500 133.7500 161.2500 Du        
  16172 ****       126.2500 133.7500 161.5000 Du        
  16173 ****       126.2500 133.7500 161.7500 Du        
  16174 ****       126.2500 133.7500 162.0000 Du        
  16175 ****       126.2500 133.7500 164.5000 Du        
  16176 ****       126.2500 133.7500 164.7500 Du        
  16177 ****       126.2500 133.7500 165.0000 Du        
  16178 ****       126.2500 133.7500 165.2500 Du        
  16179 ****       126.2500 133.7500 165.5000 Du        
  16180 ****       126.2500 133.7500 165.7500 Du        
  16181 ****       126.2500 134.0000 158.0000 Du        
  16182 ****       126.2500 134.0000 158.2500 Du        
  16183 ****       126.2500 134.0000 158.5000 Du        
  16184 ****       126.2500 134.0000 158.7500 Du        
  16185 ****       126.2500 134.0000 159.0000 Du        
  16186 ****       126.2500 134.0000 159.2500 Du        
  16187 ****       126.2500 134.0000 159.5000 Du        
  16188 ****       126.2500 134.0000 159.7500 Du        
  16189 ****       126.2500 134.0000 160.0000 Du        
  16190 ****       126.2500 134.0000 160.2500 Du        
  16191 ****       126.2500 134.0000 160.5000 Du        
  16192 ****       126.2500 134.0000 160.7500 Du        
  16193 ****       126.2500 134.0000 161.0000 Du        
  16194 ****       126.2500 134.0000 161.2500 Du        
  16195 ****       126.2500 134.0000 161.5000 Du        
  16196 ****       126.2500 134.0000 165.2500 Du        
  16197 ****       126.2500 134.0000 165.5000 Du        
  16198 ****       126.2500 134.0000 165.7500 Du        
  16199 ****       126.2500 134.2500 157.7500 Du        
  16200 ****       126.2500 134.2500 158.0000 Du        
  16201 ****       126.2500 134.2500 158.2500 Du        
  16202 ****       126.2500 134.2500 158.5000 Du        
  16203 ****       126.2500 134.2500 158.7500 Du        
  16204 ****       126.2500 134.2500 159.0000 Du        
  16205 ****       126.2500 134.2500 159.2500 Du        
  16206 ****       126.2500 134.2500 159.5000 Du        
  16207 ****       126.2500 134.5000 157.5000 Du        
  16208 ****       126.2500 134.5000 157.7500 Du        
  16209 ****       126.2500 134.5000 158.0000 Du        
  16210 ****       126.2500 134.5000 158.2500 Du        
  16211 ****       126.2500 134.5000 158.5000 Du        
  16212 ****       126.2500 134.5000 158.7500 Du        
  16213 ****       126.2500 134.7500 156.7500 Du        
  16214 ****       126.2500 134.7500 157.0000 Du        
  16215 ****       126.2500 135.0000 156.7500 Du        
  16216 ****       126.2500 136.7500  95.2500 Du        
  16217 ****       126.2500 136.7500  95.5000 Du        
  16218 ****       126.2500 137.0000  95.0000 Du        
  16219 ****       126.2500 137.0000  95.2500 Du        
  16220 ****       126.2500 137.0000  95.5000 Du        
  16221 ****       126.2500 137.0000  95.7500 Du        
  16222 ****       126.2500 137.2500  94.7500 Du        
  16223 ****       126.2500 137.2500  95.0000 Du        
  16224 ****       126.2500 137.2500  95.2500 Du        
  16225 ****       126.2500 137.2500  95.5000 Du        
  16226 ****       126.2500 137.2500  95.7500 Du        
  16227 ****       126.2500 137.2500  96.0000 Du        
  16228 ****       126.2500 137.5000  94.5000 Du        
  16229 ****       126.2500 137.5000  94.7500 Du        
  16230 ****       126.2500 137.5000  95.0000 Du        
  16231 ****       126.2500 137.5000  95.2500 Du        
  16232 ****       126.2500 137.5000  95.5000 Du        
  16233 ****       126.2500 137.5000  95.7500 Du        
  16234 ****       126.2500 137.5000  96.0000 Du        
  16235 ****       126.2500 137.5000  96.2500 Du        
  16236 ****       126.2500 137.7500  94.2500 Du        
  16237 ****       126.2500 137.7500  94.5000 Du        
  16238 ****       126.2500 137.7500  94.7500 Du        
  16239 ****       126.2500 137.7500  95.0000 Du        
  16240 ****       126.2500 137.7500  95.2500 Du        
  16241 ****       126.2500 137.7500  95.5000 Du        
  16242 ****       126.2500 137.7500  95.7500 Du        
  16243 ****       126.2500 137.7500  96.0000 Du        
  16244 ****       126.2500 137.7500  96.2500 Du        
  16245 ****       126.2500 137.7500  96.5000 Du        
  16246 ****       126.2500 138.0000  93.7500 Du        
  16247 ****       126.2500 138.0000  94.0000 Du        
  16248 ****       126.2500 138.0000  94.2500 Du        
  16249 ****       126.2500 138.0000  94.5000 Du        
  16250 ****       126.2500 138.0000  94.7500 Du        
  16251 ****       126.2500 138.0000  95.0000 Du        
  16252 ****       126.2500 138.0000  95.2500 Du        
  16253 ****       126.2500 138.0000  95.5000 Du        
  16254 ****       126.2500 138.0000  95.7500 Du        
  16255 ****       126.2500 138.0000  96.0000 Du        
  16256 ****       126.2500 138.0000  96.2500 Du        
  16257 ****       126.2500 138.0000  96.5000 Du        
  16258 ****       126.2500 138.0000  96.7500 Du        
  16259 ****       126.2500 138.2500  93.2500 Du        
  16260 ****       126.2500 138.2500  93.5000 Du        
  16261 ****       126.2500 138.2500  93.7500 Du        
  16262 ****       126.2500 138.2500  94.0000 Du        
  16263 ****       126.2500 138.2500  94.2500 Du        
  16264 ****       126.2500 138.2500  94.5000 Du        
  16265 ****       126.2500 138.2500  94.7500 Du        
  16266 ****       126.2500 138.2500  95.0000 Du        
  16267 ****       126.2500 138.2500  95.2500 Du        
  16268 ****       126.2500 138.2500  95.5000 Du        
  16269 ****       126.2500 138.2500  95.7500 Du        
  16270 ****       126.2500 138.2500  96.0000 Du        
  16271 ****       126.2500 138.2500  96.2500 Du        
  16272 ****       126.2500 138.2500  96.5000 Du        
  16273 ****       126.2500 138.2500  96.7500 Du        
  16274 ****       126.2500 138.5000  92.5000 Du        
  16275 ****       126.2500 138.5000  92.7500 Du        
  16276 ****       126.2500 138.5000  93.0000 Du        
  16277 ****       126.2500 138.5000  93.2500 Du        
  16278 ****       126.2500 138.5000  93.5000 Du        
  16279 ****       126.2500 138.5000  93.7500 Du        
  16280 ****       126.2500 138.5000  94.0000 Du        
  16281 ****       126.2500 138.5000  94.2500 Du        
  16282 ****       126.2500 138.5000  94.5000 Du        
  16283 ****       126.2500 138.5000  94.7500 Du        
  16284 ****       126.2500 138.5000  95.0000 Du        
  16285 ****       126.2500 138.5000  95.2500 Du        
  16286 ****       126.2500 138.5000  95.5000 Du        
  16287 ****       126.2500 138.5000  95.7500 Du        
  16288 ****       126.2500 138.5000  96.0000 Du        
  16289 ****       126.2500 138.5000  96.2500 Du        
  16290 ****       126.2500 138.5000  96.5000 Du        
  16291 ****       126.2500 138.5000  96.7500 Du        
  16292 ****       126.2500 138.7500  91.5000 Du        
  16293 ****       126.2500 138.7500  91.7500 Du        
  16294 ****       126.2500 138.7500  92.0000 Du        
  16295 ****       126.2500 138.7500  92.2500 Du        
  16296 ****       126.2500 138.7500  92.5000 Du        
  16297 ****       126.2500 138.7500  92.7500 Du        
  16298 ****       126.2500 138.7500  93.0000 Du        
  16299 ****       126.2500 138.7500  93.2500 Du        
  16300 ****       126.2500 138.7500  93.5000 Du        
  16301 ****       126.2500 138.7500  93.7500 Du        
  16302 ****       126.2500 138.7500  94.0000 Du        
  16303 ****       126.2500 138.7500  94.2500 Du        
  16304 ****       126.2500 138.7500  94.5000 Du        
  16305 ****       126.2500 138.7500  94.7500 Du        
  16306 ****       126.2500 138.7500  95.0000 Du        
  16307 ****       126.2500 138.7500  95.2500 Du        
  16308 ****       126.2500 138.7500  95.5000 Du        
  16309 ****       126.2500 138.7500  95.7500 Du        
  16310 ****       126.2500 138.7500  96.0000 Du        
  16311 ****       126.2500 138.7500  96.2500 Du        
  16312 ****       126.2500 138.7500  96.5000 Du        
  16313 ****       126.2500 138.7500  96.7500 Du        
  16314 ****       126.2500 138.7500  97.0000 Du        
  16315 ****       126.2500 139.0000  91.0000 Du        
  16316 ****       126.2500 139.0000  91.2500 Du        
  16317 ****       126.2500 139.0000  91.5000 Du        
  16318 ****       126.2500 139.0000  91.7500 Du        
  16319 ****       126.2500 139.0000  92.0000 Du        
  16320 ****       126.2500 139.0000  92.2500 Du        
  16321 ****       126.2500 139.0000  92.5000 Du        
  16322 ****       126.2500 139.0000  92.7500 Du        
  16323 ****       126.2500 139.0000  93.0000 Du        
  16324 ****       126.2500 139.0000  93.2500 Du        
  16325 ****       126.2500 139.0000  93.5000 Du        
  16326 ****       126.2500 139.0000  93.7500 Du        
  16327 ****       126.2500 139.0000  94.0000 Du        
  16328 ****       126.2500 139.0000  94.2500 Du        
  16329 ****       126.2500 139.0000  94.5000 Du        
  16330 ****       126.2500 139.0000  94.7500 Du        
  16331 ****       126.2500 139.0000  95.0000 Du        
  16332 ****       126.2500 139.0000  95.2500 Du        
  16333 ****       126.2500 139.0000  95.5000 Du        
  16334 ****       126.2500 139.0000  95.7500 Du        
  16335 ****       126.2500 139.0000  96.0000 Du        
  16336 ****       126.2500 139.0000  96.2500 Du        
  16337 ****       126.2500 139.0000  96.5000 Du        
  16338 ****       126.2500 139.0000  96.7500 Du        
  16339 ****       126.2500 139.0000  97.0000 Du        
  16340 ****       126.2500 139.0000  97.2500 Du        
  16341 ****       126.2500 139.2500  91.0000 Du        
  16342 ****       126.2500 139.2500  91.2500 Du        
  16343 ****       126.2500 139.2500  91.5000 Du        
  16344 ****       126.2500 139.2500  91.7500 Du        
  16345 ****       126.2500 139.2500  92.0000 Du        
  16346 ****       126.2500 139.2500  92.2500 Du        
  16347 ****       126.2500 139.2500  92.5000 Du        
  16348 ****       126.2500 139.2500  92.7500 Du        
  16349 ****       126.2500 139.2500  93.0000 Du        
  16350 ****       126.2500 139.2500  93.2500 Du        
  16351 ****       126.2500 139.2500  93.5000 Du        
  16352 ****       126.2500 139.2500  94.0000 Du        
  16353 ****       126.2500 139.2500  94.7500 Du        
  16354 ****       126.2500 139.2500  95.0000 Du        
  16355 ****       126.2500 139.2500  95.5000 Du        
  16356 ****       126.2500 139.2500  95.7500 Du        
  16357 ****       126.2500 139.2500  96.0000 Du        
  16358 ****       126.2500 139.2500  96.2500 Du        
  16359 ****       126.2500 139.2500  96.5000 Du        
  16360 ****       126.2500 139.2500  96.7500 Du        
  16361 ****       126.2500 139.2500  97.0000 Du        
  16362 ****       126.2500 139.2500  97.2500 Du        
  16363 ****       126.2500 139.5000  91.0000 Du        
  16364 ****       126.2500 139.5000  91.2500 Du        
  16365 ****       126.2500 139.5000  91.5000 Du        
  16366 ****       126.2500 139.5000  91.7500 Du        
  16367 ****       126.2500 139.5000  92.0000 Du        
  16368 ****       126.2500 139.5000  96.0000 Du        
  16369 ****       126.2500 139.5000  96.2500 Du        
  16370 ****       126.2500 139.5000  96.5000 Du        
  16371 ****       126.2500 139.5000  96.7500 Du        
  16372 ****       126.2500 139.5000  97.0000 Du        
  16373 ****       126.2500 139.5000  97.2500 Du        
  16374 ****       126.2500 139.5000  97.5000 Du        
  16375 ****       126.2500 139.7500  90.7500 Du        
  16376 ****       126.2500 139.7500  91.0000 Du        
  16377 ****       126.2500 139.7500  91.2500 Du        
  16378 ****       126.2500 139.7500  91.5000 Du        
  16379 ****       126.2500 139.7500  91.7500 Du        
  16380 ****       126.2500 139.7500  96.0000 Du        
  16381 ****       126.2500 139.7500  96.2500 Du        
  16382 ****       126.2500 139.7500  96.5000 Du        
  16383 ****       126.2500 139.7500  96.7500 Du        
  16384 ****       126.2500 139.7500  97.0000 Du        
  16385 ****       126.2500 139.7500  97.2500 Du        
  16386 ****       126.2500 139.7500  97.5000 Du        
  16387 ****       126.2500 139.7500  97.7500 Du        
  16388 ****       126.2500 140.0000  90.7500 Du        
  16389 ****       126.2500 140.0000  91.0000 Du        
  16390 ****       126.2500 140.0000  91.2500 Du        
  16391 ****       126.2500 140.0000  91.5000 Du        
  16392 ****       126.2500 140.0000  96.2500 Du        
  16393 ****       126.2500 140.0000  96.5000 Du        
  16394 ****       126.2500 140.0000  96.7500 Du        
  16395 ****       126.2500 140.0000  97.0000 Du        
  16396 ****       126.2500 140.0000  97.2500 Du        
  16397 ****       126.2500 140.0000  97.5000 Du        
  16398 ****       126.2500 140.0000  97.7500 Du        
  16399 ****       126.2500 140.0000  98.0000 Du        
  16400 ****       126.2500 140.2500  90.7500 Du        
  16401 ****       126.2500 140.2500  91.0000 Du        
  16402 ****       126.2500 140.2500  91.2500 Du        
  16403 ****       126.2500 140.2500  96.2500 Du        
  16404 ****       126.2500 140.2500  96.5000 Du        
  16405 ****       126.2500 140.2500  96.7500 Du        
  16406 ****       126.2500 140.2500  97.0000 Du        
  16407 ****       126.2500 140.2500  97.2500 Du        
  16408 ****       126.2500 140.2500  97.5000 Du        
  16409 ****       126.2500 140.2500  97.7500 Du        
  16410 ****       126.2500 140.2500  98.0000 Du        
  16411 ****       126.2500 140.2500  98.2500 Du        
  16412 ****       126.2500 140.5000  96.5000 Du        
  16413 ****       126.2500 140.5000  96.7500 Du        
  16414 ****       126.2500 140.5000  97.0000 Du        
  16415 ****       126.2500 140.5000  97.2500 Du        
  16416 ****       126.2500 140.5000  97.5000 Du        
  16417 ****       126.2500 140.5000  97.7500 Du        
  16418 ****       126.2500 140.5000  98.0000 Du        
  16419 ****       126.2500 140.5000  98.2500 Du        
  16420 ****       126.2500 140.5000  98.5000 Du        
  16421 ****       126.2500 140.7500  96.5000 Du        
  16422 ****       126.2500 140.7500  96.7500 Du        
  16423 ****       126.2500 140.7500  97.0000 Du        
  16424 ****       126.2500 140.7500  97.2500 Du        
  16425 ****       126.2500 140.7500  97.5000 Du        
  16426 ****       126.2500 140.7500  97.7500 Du        
  16427 ****       126.2500 140.7500  98.0000 Du        
  16428 ****       126.2500 140.7500  98.2500 Du        
  16429 ****       126.2500 140.7500  98.5000 Du        
  16430 ****       126.2500 141.0000  96.5000 Du        
  16431 ****       126.2500 141.0000  96.7500 Du        
  16432 ****       126.2500 141.0000  97.0000 Du        
  16433 ****       126.2500 141.0000  97.2500 Du        
  16434 ****       126.2500 141.0000  97.5000 Du        
  16435 ****       126.2500 141.0000  97.7500 Du        
  16436 ****       126.2500 141.0000  98.0000 Du        
  16437 ****       126.2500 141.0000  98.2500 Du        
  16438 ****       126.2500 141.0000  98.5000 Du        
  16439 ****       126.2500 141.0000  98.7500 Du        
  16440 ****       126.2500 141.2500  97.0000 Du        
  16441 ****       126.2500 146.7500 118.7500 Du        
  16442 ****       126.2500 146.7500 119.0000 Du        
  16443 ****       126.2500 147.0000 119.0000 Du        
  16444 ****       126.2500 147.2500 119.0000 Du        
  16445 ****       126.2500 147.2500 119.2500 Du        
  16446 ****       126.2500 154.5000 157.5000 Du        
  16447 ****       126.2500 154.5000 157.7500 Du        
  16448 ****       126.2500 154.5000 158.0000 Du        
  16449 ****       126.2500 154.5000 158.2500 Du        
  16450 ****       126.2500 154.5000 158.5000 Du        
  16451 ****       126.2500 154.7500 157.5000 Du        
  16452 ****       126.2500 154.7500 157.7500 Du        
  16453 ****       126.2500 154.7500 158.0000 Du        
  16454 ****       126.2500 154.7500 158.2500 Du        
  16455 ****       126.2500 154.7500 158.5000 Du        
  16456 ****       126.2500 154.7500 158.7500 Du        
  16457 ****       126.2500 155.0000 157.5000 Du        
  16458 ****       126.2500 155.0000 157.7500 Du        
  16459 ****       126.2500 155.0000 158.0000 Du        
  16460 ****       126.2500 155.0000 158.2500 Du        
  16461 ****       126.2500 155.0000 158.5000 Du        
  16462 ****       126.2500 155.0000 158.7500 Du        
  16463 ****       126.2500 155.0000 159.0000 Du        
  16464 ****       126.2500 155.2500 157.7500 Du        
  16465 ****       126.2500 155.2500 158.0000 Du        
  16466 ****       126.2500 155.2500 158.2500 Du        
  16467 ****       126.2500 155.2500 158.5000 Du        
  16468 ****       126.2500 155.2500 158.7500 Du        
  16469 ****       126.2500 155.2500 159.0000 Du        
  16470 ****       126.2500 155.5000 157.7500 Du        
  16471 ****       126.2500 155.5000 158.0000 Du        
  16472 ****       126.2500 155.5000 158.2500 Du        
  16473 ****       126.2500 155.5000 158.5000 Du        
  16474 ****       126.2500 155.5000 158.7500 Du        
  16475 ****       126.2500 155.5000 159.0000 Du        
  16476 ****       126.2500 155.5000 159.2500 Du        
  16477 ****       126.2500 155.7500 157.7500 Du        
  16478 ****       126.2500 155.7500 158.0000 Du        
  16479 ****       126.2500 155.7500 158.2500 Du        
  16480 ****       126.2500 155.7500 158.5000 Du        
  16481 ****       126.2500 155.7500 158.7500 Du        
  16482 ****       126.2500 155.7500 159.0000 Du        
  16483 ****       126.2500 155.7500 159.2500 Du        
  16484 ****       126.2500 156.0000 158.0000 Du        
  16485 ****       126.2500 156.0000 158.2500 Du        
  16486 ****       126.2500 156.0000 158.5000 Du        
  16487 ****       126.2500 156.0000 158.7500 Du        
  16488 ****       126.2500 156.0000 159.0000 Du        
  16489 ****       126.2500 156.0000 159.2500 Du        
  16490 ****       126.2500 156.0000 159.5000 Du        
  16491 ****       126.2500 156.2500 158.0000 Du        
  16492 ****       126.2500 156.2500 158.2500 Du        
  16493 ****       126.2500 156.2500 158.5000 Du        
  16494 ****       126.2500 156.2500 158.7500 Du        
  16495 ****       126.2500 156.2500 159.0000 Du        
  16496 ****       126.2500 156.2500 159.2500 Du        
  16497 ****       126.2500 156.2500 159.5000 Du        
  16498 ****       126.2500 156.2500 159.7500 Du        
  16499 ****       126.2500 156.5000 158.2500 Du        
  16500 ****       126.2500 156.5000 158.5000 Du        
  16501 ****       126.2500 156.5000 158.7500 Du        
  16502 ****       126.2500 156.5000 159.0000 Du        
  16503 ****       126.2500 156.5000 159.2500 Du        
  16504 ****       126.2500 156.5000 159.5000 Du        
  16505 ****       126.2500 156.5000 159.7500 Du        
  16506 ****       126.2500 156.7500 158.2500 Du        
  16507 ****       126.2500 156.7500 158.5000 Du        
  16508 ****       126.2500 156.7500 158.7500 Du        
  16509 ****       126.2500 156.7500 159.0000 Du        
  16510 ****       126.2500 156.7500 159.2500 Du        
  16511 ****       126.5000 121.0000 156.0000 Du        
  16512 ****       126.5000 121.0000 156.2500 Du        
  16513 ****       126.5000 121.0000 156.5000 Du        
  16514 ****       126.5000 121.0000 156.7500 Du        
  16515 ****       126.5000 121.0000 157.0000 Du        
  16516 ****       126.5000 121.0000 157.2500 Du        
  16517 ****       126.5000 121.0000 164.5000 Du        
  16518 ****       126.5000 121.0000 164.7500 Du        
  16519 ****       126.5000 121.0000 165.0000 Du        
  16520 ****       126.5000 121.0000 165.2500 Du        
  16521 ****       126.5000 121.2500 156.0000 Du        
  16522 ****       126.5000 121.2500 156.2500 Du        
  16523 ****       126.5000 121.2500 156.5000 Du        
  16524 ****       126.5000 121.2500 156.7500 Du        
  16525 ****       126.5000 121.2500 157.0000 Du        
  16526 ****       126.5000 121.2500 157.2500 Du        
  16527 ****       126.5000 121.2500 164.5000 Du        
  16528 ****       126.5000 121.2500 164.7500 Du        
  16529 ****       126.5000 121.2500 165.0000 Du        
  16530 ****       126.5000 121.2500 165.2500 Du        
  16531 ****       126.5000 121.5000 155.7500 Du        
  16532 ****       126.5000 121.5000 156.0000 Du        
  16533 ****       126.5000 121.5000 156.2500 Du        
  16534 ****       126.5000 121.5000 156.5000 Du        
  16535 ****       126.5000 121.5000 156.7500 Du        
  16536 ****       126.5000 121.5000 157.0000 Du        
  16537 ****       126.5000 121.5000 157.2500 Du        
  16538 ****       126.5000 121.5000 164.5000 Du        
  16539 ****       126.5000 121.5000 164.7500 Du        
  16540 ****       126.5000 121.5000 165.0000 Du        
  16541 ****       126.5000 121.5000 165.2500 Du        
  16542 ****       126.5000 121.7500 155.7500 Du        
  16543 ****       126.5000 121.7500 156.0000 Du        
  16544 ****       126.5000 121.7500 156.2500 Du        
  16545 ****       126.5000 121.7500 156.5000 Du        
  16546 ****       126.5000 121.7500 156.7500 Du        
  16547 ****       126.5000 121.7500 157.0000 Du        
  16548 ****       126.5000 121.7500 157.2500 Du        
  16549 ****       126.5000 121.7500 164.5000 Du        
  16550 ****       126.5000 121.7500 164.7500 Du        
  16551 ****       126.5000 121.7500 165.0000 Du        
  16552 ****       126.5000 121.7500 165.2500 Du        
  16553 ****       126.5000 122.0000 155.7500 Du        
  16554 ****       126.5000 122.0000 156.0000 Du        
  16555 ****       126.5000 122.0000 156.2500 Du        
  16556 ****       126.5000 122.0000 156.5000 Du        
  16557 ****       126.5000 122.0000 156.7500 Du        
  16558 ****       126.5000 122.0000 157.0000 Du        
  16559 ****       126.5000 122.0000 157.2500 Du        
  16560 ****       126.5000 122.0000 157.5000 Du        
  16561 ****       126.5000 122.0000 164.7500 Du        
  16562 ****       126.5000 122.2500 155.7500 Du        
  16563 ****       126.5000 122.2500 156.0000 Du        
  16564 ****       126.5000 122.2500 156.2500 Du        
  16565 ****       126.5000 122.2500 156.5000 Du        
  16566 ****       126.5000 122.2500 156.7500 Du        
  16567 ****       126.5000 122.2500 157.0000 Du        
  16568 ****       126.5000 122.2500 157.2500 Du        
  16569 ****       126.5000 122.2500 157.5000 Du        
  16570 ****       126.5000 122.5000 156.5000 Du        
  16571 ****       126.5000 122.5000 156.7500 Du        
  16572 ****       126.5000 122.5000 157.0000 Du        
  16573 ****       126.5000 122.5000 157.2500 Du        
  16574 ****       126.5000 122.7500 156.7500 Du        
  16575 ****       126.5000 122.7500 157.0000 Du        
  16576 ****       126.5000 122.7500 157.2500 Du        
  16577 ****       126.5000 123.0000 157.0000 Du        
  16578 ****       126.5000 123.0000 157.2500 Du        
  16579 ****       126.5000 123.0000 157.5000 Du        
  16580 ****       126.5000 123.0000 157.7500 Du        
  16581 ****       126.5000 123.2500 157.5000 Du        
  16582 ****       126.5000 123.2500 157.7500 Du        
  16583 ****       126.5000 123.2500 158.0000 Du        
  16584 ****       126.5000 123.5000 157.7500 Du        
  16585 ****       126.5000 123.5000 158.0000 Du        
  16586 ****       126.5000 123.5000 158.2500 Du        
  16587 ****       126.5000 123.7500 157.7500 Du        
  16588 ****       126.5000 123.7500 158.0000 Du        
  16589 ****       126.5000 123.7500 158.2500 Du        
  16590 ****       126.5000 124.0000 158.0000 Du        
  16591 ****       126.5000 124.0000 158.2500 Du        
  16592 ****       126.5000 124.0000 158.5000 Du        
  16593 ****       126.5000 124.2500 158.0000 Du        
  16594 ****       126.5000 124.2500 158.2500 Du        
  16595 ****       126.5000 124.2500 158.5000 Du        
  16596 ****       126.5000 130.0000 163.0000 Du        
  16597 ****       126.5000 130.0000 163.2500 Du        
  16598 ****       126.5000 130.0000 163.5000 Du        
  16599 ****       126.5000 130.0000 163.7500 Du        
  16600 ****       126.5000 130.2500 163.0000 Du        
  16601 ****       126.5000 130.2500 163.2500 Du        
  16602 ****       126.5000 130.2500 163.5000 Du        
  16603 ****       126.5000 130.2500 163.7500 Du        
  16604 ****       126.5000 130.2500 164.0000 Du        
  16605 ****       126.5000 130.5000 163.2500 Du        
  16606 ****       126.5000 130.5000 163.5000 Du        
  16607 ****       126.5000 130.5000 163.7500 Du        
  16608 ****       126.5000 130.5000 164.0000 Du        
  16609 ****       126.5000 130.7500 163.0000 Du        
  16610 ****       126.5000 130.7500 163.5000 Du        
  16611 ****       126.5000 130.7500 163.7500 Du        
  16612 ****       126.5000 130.7500 164.0000 Du        
  16613 ****       126.5000 130.7500 164.2500 Du        
  16614 ****       126.5000 131.0000 163.0000 Du        
  16615 ****       126.5000 131.0000 163.2500 Du        
  16616 ****       126.5000 131.0000 163.5000 Du        
  16617 ****       126.5000 131.0000 163.7500 Du        
  16618 ****       126.5000 131.0000 164.0000 Du        
  16619 ****       126.5000 131.0000 164.2500 Du        
  16620 ****       126.5000 131.2500 163.5000 Du        
  16621 ****       126.5000 131.2500 163.7500 Du        
  16622 ****       126.5000 131.2500 164.0000 Du        
  16623 ****       126.5000 131.2500 164.2500 Du        
  16624 ****       126.5000 131.2500 164.5000 Du        
  16625 ****       126.5000 131.5000 162.0000 Du        
  16626 ****       126.5000 131.5000 162.2500 Du        
  16627 ****       126.5000 131.5000 162.5000 Du        
  16628 ****       126.5000 131.5000 162.7500 Du        
  16629 ****       126.5000 131.5000 163.5000 Du        
  16630 ****       126.5000 131.5000 163.7500 Du        
  16631 ****       126.5000 131.5000 164.0000 Du        
  16632 ****       126.5000 131.5000 164.2500 Du        
  16633 ****       126.5000 131.5000 164.5000 Du        
  16634 ****       126.5000 131.5000 164.7500 Du        
  16635 ****       126.5000 131.7500 161.5000 Du        
  16636 ****       126.5000 131.7500 161.7500 Du        
  16637 ****       126.5000 131.7500 162.0000 Du        
  16638 ****       126.5000 131.7500 162.2500 Du        
  16639 ****       126.5000 131.7500 162.5000 Du        
  16640 ****       126.5000 131.7500 162.7500 Du        
  16641 ****       126.5000 131.7500 163.0000 Du        
  16642 ****       126.5000 131.7500 163.2500 Du        
  16643 ****       126.5000 131.7500 163.5000 Du        
  16644 ****       126.5000 131.7500 163.7500 Du        
  16645 ****       126.5000 131.7500 164.0000 Du        
  16646 ****       126.5000 131.7500 164.2500 Du        
  16647 ****       126.5000 131.7500 164.5000 Du        
  16648 ****       126.5000 131.7500 164.7500 Du        
  16649 ****       126.5000 131.7500 165.0000 Du        
  16650 ****       126.5000 132.0000 160.7500 Du        
  16651 ****       126.5000 132.0000 161.0000 Du        
  16652 ****       126.5000 132.0000 161.2500 Du        
  16653 ****       126.5000 132.0000 161.5000 Du        
  16654 ****       126.5000 132.0000 161.7500 Du        
  16655 ****       126.5000 132.0000 162.0000 Du        
  16656 ****       126.5000 132.0000 162.2500 Du        
  16657 ****       126.5000 132.0000 162.5000 Du        
  16658 ****       126.5000 132.0000 162.7500 Du        
  16659 ****       126.5000 132.0000 163.0000 Du        
  16660 ****       126.5000 132.0000 163.2500 Du        
  16661 ****       126.5000 132.0000 163.5000 Du        
  16662 ****       126.5000 132.0000 163.7500 Du        
  16663 ****       126.5000 132.0000 164.0000 Du        
  16664 ****       126.5000 132.0000 164.2500 Du        
  16665 ****       126.5000 132.0000 164.5000 Du        
  16666 ****       126.5000 132.0000 164.7500 Du        
  16667 ****       126.5000 132.0000 165.0000 Du        
  16668 ****       126.5000 132.0000 165.2500 Du        
  16669 ****       126.5000 132.0000 165.5000 Du        
  16670 ****       126.5000 132.2500 160.5000 Du        
  16671 ****       126.5000 132.2500 160.7500 Du        
  16672 ****       126.5000 132.2500 161.0000 Du        
  16673 ****       126.5000 132.2500 161.2500 Du        
  16674 ****       126.5000 132.2500 161.5000 Du        
  16675 ****       126.5000 132.2500 161.7500 Du        
  16676 ****       126.5000 132.2500 162.0000 Du        
  16677 ****       126.5000 132.2500 162.2500 Du        
  16678 ****       126.5000 132.2500 162.5000 Du        
  16679 ****       126.5000 132.2500 162.7500 Du        
  16680 ****       126.5000 132.2500 163.0000 Du        
  16681 ****       126.5000 132.2500 163.2500 Du        
  16682 ****       126.5000 132.2500 163.5000 Du        
  16683 ****       126.5000 132.2500 163.7500 Du        
  16684 ****       126.5000 132.2500 164.0000 Du        
  16685 ****       126.5000 132.2500 164.2500 Du        
  16686 ****       126.5000 132.2500 164.5000 Du        
  16687 ****       126.5000 132.2500 164.7500 Du        
  16688 ****       126.5000 132.2500 165.0000 Du        
  16689 ****       126.5000 132.2500 165.2500 Du        
  16690 ****       126.5000 132.2500 165.5000 Du        
  16691 ****       126.5000 132.2500 165.7500 Du        
  16692 ****       126.5000 132.5000 159.7500 Du        
  16693 ****       126.5000 132.5000 160.0000 Du        
  16694 ****       126.5000 132.5000 160.2500 Du        
  16695 ****       126.5000 132.5000 160.5000 Du        
  16696 ****       126.5000 132.5000 160.7500 Du        
  16697 ****       126.5000 132.5000 161.0000 Du        
  16698 ****       126.5000 132.5000 161.2500 Du        
  16699 ****       126.5000 132.5000 161.5000 Du        
  16700 ****       126.5000 132.5000 161.7500 Du        
  16701 ****       126.5000 132.5000 162.0000 Du        
  16702 ****       126.5000 132.5000 162.2500 Du        
  16703 ****       126.5000 132.5000 162.5000 Du        
  16704 ****       126.5000 132.5000 162.7500 Du        
  16705 ****       126.5000 132.5000 163.0000 Du        
  16706 ****       126.5000 132.5000 163.2500 Du        
  16707 ****       126.5000 132.5000 163.5000 Du        
  16708 ****       126.5000 132.5000 163.7500 Du        
  16709 ****       126.5000 132.5000 164.0000 Du        
  16710 ****       126.5000 132.5000 164.2500 Du        
  16711 ****       126.5000 132.5000 164.5000 Du        
  16712 ****       126.5000 132.5000 164.7500 Du        
  16713 ****       126.5000 132.5000 165.0000 Du        
  16714 ****       126.5000 132.5000 165.2500 Du        
  16715 ****       126.5000 132.5000 165.5000 Du        
  16716 ****       126.5000 132.5000 165.7500 Du        
  16717 ****       126.5000 132.5000 166.0000 Du        
  16718 ****       126.5000 132.7500 159.5000 Du        
  16719 ****       126.5000 132.7500 159.7500 Du        
  16720 ****       126.5000 132.7500 160.0000 Du        
  16721 ****       126.5000 132.7500 160.2500 Du        
  16722 ****       126.5000 132.7500 160.5000 Du        
  16723 ****       126.5000 132.7500 160.7500 Du        
  16724 ****       126.5000 132.7500 161.0000 Du        
  16725 ****       126.5000 132.7500 161.2500 Du        
  16726 ****       126.5000 132.7500 161.5000 Du        
  16727 ****       126.5000 132.7500 161.7500 Du        
  16728 ****       126.5000 132.7500 162.0000 Du        
  16729 ****       126.5000 132.7500 162.2500 Du        
  16730 ****       126.5000 132.7500 162.5000 Du        
  16731 ****       126.5000 132.7500 162.7500 Du        
  16732 ****       126.5000 132.7500 163.0000 Du        
  16733 ****       126.5000 132.7500 163.2500 Du        
  16734 ****       126.5000 132.7500 163.5000 Du        
  16735 ****       126.5000 132.7500 163.7500 Du        
  16736 ****       126.5000 132.7500 164.0000 Du        
  16737 ****       126.5000 132.7500 164.2500 Du        
  16738 ****       126.5000 132.7500 164.5000 Du        
  16739 ****       126.5000 132.7500 164.7500 Du        
  16740 ****       126.5000 132.7500 165.0000 Du        
  16741 ****       126.5000 132.7500 165.2500 Du        
  16742 ****       126.5000 132.7500 165.5000 Du        
  16743 ****       126.5000 132.7500 165.7500 Du        
  16744 ****       126.5000 132.7500 166.0000 Du        
  16745 ****       126.5000 133.0000 159.2500 Du        
  16746 ****       126.5000 133.0000 159.5000 Du        
  16747 ****       126.5000 133.0000 159.7500 Du        
  16748 ****       126.5000 133.0000 160.0000 Du        
  16749 ****       126.5000 133.0000 160.2500 Du        
  16750 ****       126.5000 133.0000 160.5000 Du        
  16751 ****       126.5000 133.0000 160.7500 Du        
  16752 ****       126.5000 133.0000 161.0000 Du        
  16753 ****       126.5000 133.0000 161.2500 Du        
  16754 ****       126.5000 133.0000 161.5000 Du        
  16755 ****       126.5000 133.0000 161.7500 Du        
  16756 ****       126.5000 133.0000 162.0000 Du        
  16757 ****       126.5000 133.0000 162.2500 Du        
  16758 ****       126.5000 133.0000 162.5000 Du        
  16759 ****       126.5000 133.0000 162.7500 Du        
  16760 ****       126.5000 133.0000 163.0000 Du        
  16761 ****       126.5000 133.0000 163.2500 Du        
  16762 ****       126.5000 133.0000 163.5000 Du        
  16763 ****       126.5000 133.0000 163.7500 Du        
  16764 ****       126.5000 133.0000 164.0000 Du        
  16765 ****       126.5000 133.0000 164.2500 Du        
  16766 ****       126.5000 133.0000 164.5000 Du        
  16767 ****       126.5000 133.0000 164.7500 Du        
  16768 ****       126.5000 133.0000 165.0000 Du        
  16769 ****       126.5000 133.0000 165.2500 Du        
  16770 ****       126.5000 133.0000 165.5000 Du        
  16771 ****       126.5000 133.0000 165.7500 Du        
  16772 ****       126.5000 133.0000 166.0000 Du        
  16773 ****       126.5000 133.2500 159.2500 Du        
  16774 ****       126.5000 133.2500 159.5000 Du        
  16775 ****       126.5000 133.2500 159.7500 Du        
  16776 ****       126.5000 133.2500 160.0000 Du        
  16777 ****       126.5000 133.2500 160.2500 Du        
  16778 ****       126.5000 133.2500 160.5000 Du        
  16779 ****       126.5000 133.2500 160.7500 Du        
  16780 ****       126.5000 133.2500 161.0000 Du        
  16781 ****       126.5000 133.2500 161.2500 Du        
  16782 ****       126.5000 133.2500 161.5000 Du        
  16783 ****       126.5000 133.2500 161.7500 Du        
  16784 ****       126.5000 133.2500 162.0000 Du        
  16785 ****       126.5000 133.2500 162.2500 Du        
  16786 ****       126.5000 133.2500 162.5000 Du        
  16787 ****       126.5000 133.2500 162.7500 Du        
  16788 ****       126.5000 133.2500 163.0000 Du        
  16789 ****       126.5000 133.2500 163.2500 Du        
  16790 ****       126.5000 133.2500 163.5000 Du        
  16791 ****       126.5000 133.2500 163.7500 Du        
  16792 ****       126.5000 133.2500 164.0000 Du        
  16793 ****       126.5000 133.2500 164.2500 Du        
  16794 ****       126.5000 133.2500 164.5000 Du        
  16795 ****       126.5000 133.2500 164.7500 Du        
  16796 ****       126.5000 133.2500 165.0000 Du        
  16797 ****       126.5000 133.2500 165.2500 Du        
  16798 ****       126.5000 133.2500 165.5000 Du        
  16799 ****       126.5000 133.2500 165.7500 Du        
  16800 ****       126.5000 133.2500 166.0000 Du        
  16801 ****       126.5000 133.5000 158.5000 Du        
  16802 ****       126.5000 133.5000 158.7500 Du        
  16803 ****       126.5000 133.5000 159.0000 Du        
  16804 ****       126.5000 133.5000 159.2500 Du        
  16805 ****       126.5000 133.5000 159.5000 Du        
  16806 ****       126.5000 133.5000 159.7500 Du        
  16807 ****       126.5000 133.5000 160.0000 Du        
  16808 ****       126.5000 133.5000 160.2500 Du        
  16809 ****       126.5000 133.5000 160.5000 Du        
  16810 ****       126.5000 133.5000 160.7500 Du        
  16811 ****       126.5000 133.5000 161.0000 Du        
  16812 ****       126.5000 133.5000 161.2500 Du        
  16813 ****       126.5000 133.5000 161.5000 Du        
  16814 ****       126.5000 133.5000 161.7500 Du        
  16815 ****       126.5000 133.5000 162.0000 Du        
  16816 ****       126.5000 133.5000 162.2500 Du        
  16817 ****       126.5000 133.5000 162.5000 Du        
  16818 ****       126.5000 133.5000 162.7500 Du        
  16819 ****       126.5000 133.5000 163.0000 Du        
  16820 ****       126.5000 133.5000 163.2500 Du        
  16821 ****       126.5000 133.5000 163.5000 Du        
  16822 ****       126.5000 133.5000 163.7500 Du        
  16823 ****       126.5000 133.5000 164.0000 Du        
  16824 ****       126.5000 133.5000 164.2500 Du        
  16825 ****       126.5000 133.5000 164.5000 Du        
  16826 ****       126.5000 133.5000 164.7500 Du        
  16827 ****       126.5000 133.5000 165.0000 Du        
  16828 ****       126.5000 133.5000 165.2500 Du        
  16829 ****       126.5000 133.5000 165.5000 Du        
  16830 ****       126.5000 133.5000 165.7500 Du        
  16831 ****       126.5000 133.7500 158.0000 Du        
  16832 ****       126.5000 133.7500 158.2500 Du        
  16833 ****       126.5000 133.7500 158.5000 Du        
  16834 ****       126.5000 133.7500 158.7500 Du        
  16835 ****       126.5000 133.7500 159.0000 Du        
  16836 ****       126.5000 133.7500 159.2500 Du        
  16837 ****       126.5000 133.7500 159.5000 Du        
  16838 ****       126.5000 133.7500 159.7500 Du        
  16839 ****       126.5000 133.7500 160.0000 Du        
  16840 ****       126.5000 133.7500 160.2500 Du        
  16841 ****       126.5000 133.7500 160.5000 Du        
  16842 ****       126.5000 133.7500 160.7500 Du        
  16843 ****       126.5000 133.7500 161.0000 Du        
  16844 ****       126.5000 133.7500 161.2500 Du        
  16845 ****       126.5000 133.7500 161.5000 Du        
  16846 ****       126.5000 133.7500 161.7500 Du        
  16847 ****       126.5000 133.7500 162.0000 Du        
  16848 ****       126.5000 133.7500 162.2500 Du        
  16849 ****       126.5000 133.7500 164.5000 Du        
  16850 ****       126.5000 133.7500 164.7500 Du        
  16851 ****       126.5000 133.7500 165.0000 Du        
  16852 ****       126.5000 133.7500 165.2500 Du        
  16853 ****       126.5000 133.7500 165.5000 Du        
  16854 ****       126.5000 133.7500 165.7500 Du        
  16855 ****       126.5000 134.0000 157.5000 Du        
  16856 ****       126.5000 134.0000 157.7500 Du        
  16857 ****       126.5000 134.0000 158.0000 Du        
  16858 ****       126.5000 134.0000 158.2500 Du        
  16859 ****       126.5000 134.0000 158.5000 Du        
  16860 ****       126.5000 134.0000 158.7500 Du        
  16861 ****       126.5000 134.0000 159.0000 Du        
  16862 ****       126.5000 134.0000 159.2500 Du        
  16863 ****       126.5000 134.0000 159.5000 Du        
  16864 ****       126.5000 134.0000 159.7500 Du        
  16865 ****       126.5000 134.0000 160.0000 Du        
  16866 ****       126.5000 134.0000 160.2500 Du        
  16867 ****       126.5000 134.0000 160.5000 Du        
  16868 ****       126.5000 134.0000 160.7500 Du        
  16869 ****       126.5000 134.0000 161.0000 Du        
  16870 ****       126.5000 134.0000 161.2500 Du        
  16871 ****       126.5000 134.0000 161.5000 Du        
  16872 ****       126.5000 134.0000 161.7500 Du        
  16873 ****       126.5000 134.0000 165.2500 Du        
  16874 ****       126.5000 134.0000 165.5000 Du        
  16875 ****       126.5000 134.2500 157.2500 Du        
  16876 ****       126.5000 134.2500 157.5000 Du        
  16877 ****       126.5000 134.2500 157.7500 Du        
  16878 ****       126.5000 134.2500 158.0000 Du        
  16879 ****       126.5000 134.2500 158.2500 Du        
  16880 ****       126.5000 134.2500 158.5000 Du        
  16881 ****       126.5000 134.2500 158.7500 Du        
  16882 ****       126.5000 134.2500 159.0000 Du        
  16883 ****       126.5000 134.2500 159.2500 Du        
  16884 ****       126.5000 134.2500 159.5000 Du        
  16885 ****       126.5000 134.2500 159.7500 Du        
  16886 ****       126.5000 134.5000 156.7500 Du        
  16887 ****       126.5000 134.5000 157.0000 Du        
  16888 ****       126.5000 134.5000 157.2500 Du        
  16889 ****       126.5000 134.5000 157.5000 Du        
  16890 ****       126.5000 134.5000 157.7500 Du        
  16891 ****       126.5000 134.5000 158.0000 Du        
  16892 ****       126.5000 134.5000 158.2500 Du        
  16893 ****       126.5000 134.5000 158.5000 Du        
  16894 ****       126.5000 134.5000 158.7500 Du        
  16895 ****       126.5000 134.5000 159.0000 Du        
  16896 ****       126.5000 134.7500 156.7500 Du        
  16897 ****       126.5000 134.7500 157.0000 Du        
  16898 ****       126.5000 134.7500 157.2500 Du        
  16899 ****       126.5000 134.7500 157.5000 Du        
  16900 ****       126.5000 134.7500 157.7500 Du        
  16901 ****       126.5000 134.7500 158.0000 Du        
  16902 ****       126.5000 135.0000 157.0000 Du        
  16903 ****       126.5000 137.0000  95.0000 Du        
  16904 ****       126.5000 137.0000  95.2500 Du        
  16905 ****       126.5000 137.0000  95.5000 Du        
  16906 ****       126.5000 137.2500  94.7500 Du        
  16907 ****       126.5000 137.2500  95.0000 Du        
  16908 ****       126.5000 137.2500  95.2500 Du        
  16909 ****       126.5000 137.2500  95.5000 Du        
  16910 ****       126.5000 137.2500  95.7500 Du        
  16911 ****       126.5000 137.5000  94.5000 Du        
  16912 ****       126.5000 137.5000  94.7500 Du        
  16913 ****       126.5000 137.5000  95.0000 Du        
  16914 ****       126.5000 137.5000  95.2500 Du        
  16915 ****       126.5000 137.5000  95.5000 Du        
  16916 ****       126.5000 137.5000  95.7500 Du        
  16917 ****       126.5000 137.5000  96.0000 Du        
  16918 ****       126.5000 137.7500  94.2500 Du        
  16919 ****       126.5000 137.7500  94.5000 Du        
  16920 ****       126.5000 137.7500  94.7500 Du        
  16921 ****       126.5000 137.7500  95.0000 Du        
  16922 ****       126.5000 137.7500  95.2500 Du        
  16923 ****       126.5000 137.7500  95.5000 Du        
  16924 ****       126.5000 137.7500  95.7500 Du        
  16925 ****       126.5000 137.7500  96.0000 Du        
  16926 ****       126.5000 137.7500  96.2500 Du        
  16927 ****       126.5000 137.7500  96.5000 Du        
  16928 ****       126.5000 138.0000  93.7500 Du        
  16929 ****       126.5000 138.0000  94.0000 Du        
  16930 ****       126.5000 138.0000  94.2500 Du        
  16931 ****       126.5000 138.0000  94.5000 Du        
  16932 ****       126.5000 138.0000  94.7500 Du        
  16933 ****       126.5000 138.0000  95.0000 Du        
  16934 ****       126.5000 138.0000  95.2500 Du        
  16935 ****       126.5000 138.0000  95.5000 Du        
  16936 ****       126.5000 138.0000  95.7500 Du        
  16937 ****       126.5000 138.0000  96.0000 Du        
  16938 ****       126.5000 138.0000  96.2500 Du        
  16939 ****       126.5000 138.0000  96.5000 Du        
  16940 ****       126.5000 138.2500  93.5000 Du        
  16941 ****       126.5000 138.2500  93.7500 Du        
  16942 ****       126.5000 138.2500  94.0000 Du        
  16943 ****       126.5000 138.2500  94.2500 Du        
  16944 ****       126.5000 138.2500  94.5000 Du        
  16945 ****       126.5000 138.2500  94.7500 Du        
  16946 ****       126.5000 138.2500  95.0000 Du        
  16947 ****       126.5000 138.2500  95.2500 Du        
  16948 ****       126.5000 138.2500  95.5000 Du        
  16949 ****       126.5000 138.2500  95.7500 Du        
  16950 ****       126.5000 138.2500  96.0000 Du        
  16951 ****       126.5000 138.2500  96.2500 Du        
  16952 ****       126.5000 138.2500  96.5000 Du        
  16953 ****       126.5000 138.2500  96.7500 Du        
  16954 ****       126.5000 138.5000  93.7500 Du        
  16955 ****       126.5000 138.5000  94.0000 Du        
  16956 ****       126.5000 138.5000  94.2500 Du        
  16957 ****       126.5000 138.5000  94.5000 Du        
  16958 ****       126.5000 138.5000  94.7500 Du        
  16959 ****       126.5000 138.5000  95.0000 Du        
  16960 ****       126.5000 138.5000  95.2500 Du        
  16961 ****       126.5000 138.5000  95.5000 Du        
  16962 ****       126.5000 138.5000  95.7500 Du        
  16963 ****       126.5000 138.5000  96.0000 Du        
  16964 ****       126.5000 138.5000  96.2500 Du        
  16965 ****       126.5000 138.5000  96.5000 Du        
  16966 ****       126.5000 138.5000  96.7500 Du        
  16967 ****       126.5000 138.7500  93.0000 Du        
  16968 ****       126.5000 138.7500  93.2500 Du        
  16969 ****       126.5000 138.7500  93.7500 Du        
  16970 ****       126.5000 138.7500  94.0000 Du        
  16971 ****       126.5000 138.7500  94.2500 Du        
  16972 ****       126.5000 138.7500  94.7500 Du        
  16973 ****       126.5000 138.7500  95.0000 Du        
  16974 ****       126.5000 138.7500  95.2500 Du        
  16975 ****       126.5000 138.7500  95.5000 Du        
  16976 ****       126.5000 138.7500  95.7500 Du        
  16977 ****       126.5000 138.7500  96.0000 Du        
  16978 ****       126.5000 138.7500  96.2500 Du        
  16979 ****       126.5000 138.7500  96.5000 Du        
  16980 ****       126.5000 138.7500  96.7500 Du        
  16981 ****       126.5000 138.7500  97.0000 Du        
  16982 ****       126.5000 139.0000  91.2500 Du        
  16983 ****       126.5000 139.0000  91.5000 Du        
  16984 ****       126.5000 139.0000  91.7500 Du        
  16985 ****       126.5000 139.0000  92.0000 Du        
  16986 ****       126.5000 139.0000  92.2500 Du        
  16987 ****       126.5000 139.0000  92.5000 Du        
  16988 ****       126.5000 139.0000  92.7500 Du        
  16989 ****       126.5000 139.0000  93.0000 Du        
  16990 ****       126.5000 139.0000  93.2500 Du        
  16991 ****       126.5000 139.0000  95.2500 Du        
  16992 ****       126.5000 139.0000  95.5000 Du        
  16993 ****       126.5000 139.0000  95.7500 Du        
  16994 ****       126.5000 139.0000  96.0000 Du        
  16995 ****       126.5000 139.0000  96.2500 Du        
  16996 ****       126.5000 139.0000  96.5000 Du        
  16997 ****       126.5000 139.0000  96.7500 Du        
  16998 ****       126.5000 139.0000  97.0000 Du        
  16999 ****       126.5000 139.0000  97.2500 Du        
  17000 ****       126.5000 139.2500  90.7500 Du        
  17001 ****       126.5000 139.2500  91.0000 Du        
  17002 ****       126.5000 139.2500  91.2500 Du        
  17003 ****       126.5000 139.2500  91.5000 Du        
  17004 ****       126.5000 139.2500  91.7500 Du        
  17005 ****       126.5000 139.2500  92.0000 Du        
  17006 ****       126.5000 139.2500  92.2500 Du        
  17007 ****       126.5000 139.2500  92.5000 Du        
  17008 ****       126.5000 139.2500  92.7500 Du        
  17009 ****       126.5000 139.2500  95.7500 Du        
  17010 ****       126.5000 139.2500  96.0000 Du        
  17011 ****       126.5000 139.2500  96.2500 Du        
  17012 ****       126.5000 139.2500  96.5000 Du        
  17013 ****       126.5000 139.2500  96.7500 Du        
  17014 ****       126.5000 139.2500  97.0000 Du        
  17015 ****       126.5000 139.2500  97.2500 Du        
  17016 ****       126.5000 139.5000  90.7500 Du        
  17017 ****       126.5000 139.5000  91.0000 Du        
  17018 ****       126.5000 139.5000  91.2500 Du        
  17019 ****       126.5000 139.5000  91.5000 Du        
  17020 ****       126.5000 139.5000  91.7500 Du        
  17021 ****       126.5000 139.5000  96.7500 Du        
  17022 ****       126.5000 139.5000  97.0000 Du        
  17023 ****       126.5000 139.5000  97.2500 Du        
  17024 ****       126.5000 139.5000  97.5000 Du        
  17025 ****       126.5000 139.7500  90.5000 Du        
  17026 ****       126.5000 139.7500  90.7500 Du        
  17027 ****       126.5000 139.7500  91.0000 Du        
  17028 ****       126.5000 139.7500  91.2500 Du        
  17029 ****       126.5000 139.7500  91.5000 Du        
  17030 ****       126.5000 139.7500  96.7500 Du        
  17031 ****       126.5000 139.7500  97.0000 Du        
  17032 ****       126.5000 139.7500  97.2500 Du        
  17033 ****       126.5000 139.7500  97.5000 Du        
  17034 ****       126.5000 139.7500  97.7500 Du        
  17035 ****       126.5000 140.0000  90.5000 Du        
  17036 ****       126.5000 140.0000  90.7500 Du        
  17037 ****       126.5000 140.0000  91.0000 Du        
  17038 ****       126.5000 140.0000  91.2500 Du        
  17039 ****       126.5000 140.0000  96.7500 Du        
  17040 ****       126.5000 140.0000  97.0000 Du        
  17041 ****       126.5000 140.0000  97.2500 Du        
  17042 ****       126.5000 140.0000  97.5000 Du        
  17043 ****       126.5000 140.0000  97.7500 Du        
  17044 ****       126.5000 140.0000  98.0000 Du        
  17045 ****       126.5000 140.2500  90.7500 Du        
  17046 ****       126.5000 140.2500  91.0000 Du        
  17047 ****       126.5000 140.2500  96.7500 Du        
  17048 ****       126.5000 140.2500  97.0000 Du        
  17049 ****       126.5000 140.2500  97.2500 Du        
  17050 ****       126.5000 140.2500  97.5000 Du        
  17051 ****       126.5000 140.2500  97.7500 Du        
  17052 ****       126.5000 140.2500  98.0000 Du        
  17053 ****       126.5000 140.5000  97.0000 Du        
  17054 ****       126.5000 140.5000  97.2500 Du        
  17055 ****       126.5000 140.5000  97.5000 Du        
  17056 ****       126.5000 140.5000  97.7500 Du        
  17057 ****       126.5000 140.5000  98.0000 Du        
  17058 ****       126.5000 140.5000  98.2500 Du        
  17059 ****       126.5000 140.7500  97.0000 Du        
  17060 ****       126.5000 140.7500  97.2500 Du        
  17061 ****       126.5000 140.7500  97.5000 Du        
  17062 ****       126.5000 140.7500  97.7500 Du        
  17063 ****       126.5000 140.7500  98.0000 Du        
  17064 ****       126.5000 140.7500  98.2500 Du        
  17065 ****       126.5000 141.0000  97.5000 Du        
  17066 ****       126.5000 141.0000  97.7500 Du        
  17067 ****       126.5000 141.0000  98.0000 Du        
  17068 ****       126.5000 154.5000 157.7500 Du        
  17069 ****       126.5000 154.5000 158.0000 Du        
  17070 ****       126.5000 154.5000 158.2500 Du        
  17071 ****       126.5000 154.7500 111.2500 Du        
  17072 ****       126.5000 154.7500 157.5000 Du        
  17073 ****       126.5000 154.7500 157.7500 Du        
  17074 ****       126.5000 154.7500 158.0000 Du        
  17075 ****       126.5000 154.7500 158.2500 Du        
  17076 ****       126.5000 154.7500 158.5000 Du        
  17077 ****       126.5000 154.7500 158.7500 Du        
  17078 ****       126.5000 155.0000 111.2500 Du        
  17079 ****       126.5000 155.0000 157.5000 Du        
  17080 ****       126.5000 155.0000 157.7500 Du        
  17081 ****       126.5000 155.0000 158.0000 Du        
  17082 ****       126.5000 155.0000 158.2500 Du        
  17083 ****       126.5000 155.0000 158.5000 Du        
  17084 ****       126.5000 155.0000 158.7500 Du        
  17085 ****       126.5000 155.2500 111.2500 Du        
  17086 ****       126.5000 155.2500 157.7500 Du        
  17087 ****       126.5000 155.2500 158.0000 Du        
  17088 ****       126.5000 155.2500 158.2500 Du        
  17089 ****       126.5000 155.2500 158.5000 Du        
  17090 ****       126.5000 155.2500 158.7500 Du        
  17091 ****       126.5000 155.2500 159.0000 Du        
  17092 ****       126.5000 155.5000 157.7500 Du        
  17093 ****       126.5000 155.5000 158.0000 Du        
  17094 ****       126.5000 155.5000 158.2500 Du        
  17095 ****       126.5000 155.5000 158.5000 Du        
  17096 ****       126.5000 155.5000 158.7500 Du        
  17097 ****       126.5000 155.5000 159.0000 Du        
  17098 ****       126.5000 155.7500 157.7500 Du        
  17099 ****       126.5000 155.7500 158.0000 Du        
  17100 ****       126.5000 155.7500 158.2500 Du        
  17101 ****       126.5000 155.7500 158.5000 Du        
  17102 ****       126.5000 155.7500 158.7500 Du        
  17103 ****       126.5000 155.7500 159.0000 Du        
  17104 ****       126.5000 155.7500 159.2500 Du        
  17105 ****       126.5000 156.0000 158.0000 Du        
  17106 ****       126.5000 156.0000 158.2500 Du        
  17107 ****       126.5000 156.0000 158.5000 Du        
  17108 ****       126.5000 156.0000 158.7500 Du        
  17109 ****       126.5000 156.0000 159.0000 Du        
  17110 ****       126.5000 156.0000 159.2500 Du        
  17111 ****       126.5000 156.2500 158.0000 Du        
  17112 ****       126.5000 156.2500 158.2500 Du        
  17113 ****       126.5000 156.2500 158.5000 Du        
  17114 ****       126.5000 156.2500 158.7500 Du        
  17115 ****       126.5000 156.2500 159.0000 Du        
  17116 ****       126.5000 156.2500 159.2500 Du        
  17117 ****       126.5000 156.2500 159.5000 Du        
  17118 ****       126.5000 156.5000 158.0000 Du        
  17119 ****       126.5000 156.5000 158.2500 Du        
  17120 ****       126.5000 156.5000 158.5000 Du        
  17121 ****       126.5000 156.5000 158.7500 Du        
  17122 ****       126.5000 156.5000 159.0000 Du        
  17123 ****       126.5000 156.5000 159.2500 Du        
  17124 ****       126.5000 156.5000 159.5000 Du        
  17125 ****       126.5000 156.7500 158.2500 Du        
  17126 ****       126.5000 156.7500 158.5000 Du        
  17127 ****       126.5000 156.7500 158.7500 Du        
  17128 ****       126.5000 156.7500 159.0000 Du        
  17129 ****       126.5000 156.7500 159.2500 Du        
  17130 ****       126.7500 121.0000 156.0000 Du        
  17131 ****       126.7500 121.0000 156.2500 Du        
  17132 ****       126.7500 121.0000 156.5000 Du        
  17133 ****       126.7500 121.0000 156.7500 Du        
  17134 ****       126.7500 121.0000 157.0000 Du        
  17135 ****       126.7500 121.0000 157.2500 Du        
  17136 ****       126.7500 121.0000 164.7500 Du        
  17137 ****       126.7500 121.0000 165.0000 Du        
  17138 ****       126.7500 121.0000 165.2500 Du        
  17139 ****       126.7500 121.2500 156.0000 Du        
  17140 ****       126.7500 121.2500 156.2500 Du        
  17141 ****       126.7500 121.2500 156.5000 Du        
  17142 ****       126.7500 121.2500 156.7500 Du        
  17143 ****       126.7500 121.2500 157.0000 Du        
  17144 ****       126.7500 121.2500 157.2500 Du        
  17145 ****       126.7500 121.2500 164.5000 Du        
  17146 ****       126.7500 121.2500 164.7500 Du        
  17147 ****       126.7500 121.2500 165.0000 Du        
  17148 ****       126.7500 121.2500 165.2500 Du        
  17149 ****       126.7500 121.5000 155.7500 Du        
  17150 ****       126.7500 121.5000 156.0000 Du        
  17151 ****       126.7500 121.5000 156.2500 Du        
  17152 ****       126.7500 121.5000 156.5000 Du        
  17153 ****       126.7500 121.5000 156.7500 Du        
  17154 ****       126.7500 121.5000 157.0000 Du        
  17155 ****       126.7500 121.5000 157.2500 Du        
  17156 ****       126.7500 121.5000 164.5000 Du        
  17157 ****       126.7500 121.5000 164.7500 Du        
  17158 ****       126.7500 121.5000 165.0000 Du        
  17159 ****       126.7500 121.5000 165.2500 Du        
  17160 ****       126.7500 121.7500 155.7500 Du        
  17161 ****       126.7500 121.7500 156.0000 Du        
  17162 ****       126.7500 121.7500 156.2500 Du        
  17163 ****       126.7500 121.7500 156.5000 Du        
  17164 ****       126.7500 121.7500 156.7500 Du        
  17165 ****       126.7500 121.7500 157.0000 Du        
  17166 ****       126.7500 121.7500 157.2500 Du        
  17167 ****       126.7500 121.7500 164.5000 Du        
  17168 ****       126.7500 121.7500 164.7500 Du        
  17169 ****       126.7500 121.7500 165.0000 Du        
  17170 ****       126.7500 122.0000 155.7500 Du        
  17171 ****       126.7500 122.0000 156.0000 Du        
  17172 ****       126.7500 122.0000 156.2500 Du        
  17173 ****       126.7500 122.0000 156.5000 Du        
  17174 ****       126.7500 122.0000 156.7500 Du        
  17175 ****       126.7500 122.0000 157.0000 Du        
  17176 ****       126.7500 122.0000 157.2500 Du        
  17177 ****       126.7500 122.0000 164.5000 Du        
  17178 ****       126.7500 122.0000 164.7500 Du        
  17179 ****       126.7500 122.0000 165.0000 Du        
  17180 ****       126.7500 122.2500 155.7500 Du        
  17181 ****       126.7500 122.2500 156.0000 Du        
  17182 ****       126.7500 122.2500 156.2500 Du        
  17183 ****       126.7500 122.2500 156.5000 Du        
  17184 ****       126.7500 122.2500 156.7500 Du        
  17185 ****       126.7500 122.2500 157.0000 Du        
  17186 ****       126.7500 122.2500 157.2500 Du        
  17187 ****       126.7500 122.2500 157.5000 Du        
  17188 ****       126.7500 122.5000 156.5000 Du        
  17189 ****       126.7500 122.5000 156.7500 Du        
  17190 ****       126.7500 122.5000 157.0000 Du        
  17191 ****       126.7500 122.5000 157.2500 Du        
  17192 ****       126.7500 122.7500 156.7500 Du        
  17193 ****       126.7500 122.7500 157.0000 Du        
  17194 ****       126.7500 122.7500 157.2500 Du        
  17195 ****       126.7500 122.7500 157.5000 Du        
  17196 ****       126.7500 123.0000 157.0000 Du        
  17197 ****       126.7500 123.0000 157.2500 Du        
  17198 ****       126.7500 123.0000 157.5000 Du        
  17199 ****       126.7500 123.0000 157.7500 Du        
  17200 ****       126.7500 123.2500 157.5000 Du        
  17201 ****       126.7500 123.2500 157.7500 Du        
  17202 ****       126.7500 123.2500 158.0000 Du        
  17203 ****       126.7500 123.5000 157.7500 Du        
  17204 ****       126.7500 123.5000 158.0000 Du        
  17205 ****       126.7500 123.7500 158.0000 Du        
  17206 ****       126.7500 129.7500 163.2500 Du        
  17207 ****       126.7500 129.7500 163.5000 Du        
  17208 ****       126.7500 129.7500 163.7500 Du        
  17209 ****       126.7500 130.0000 163.2500 Du        
  17210 ****       126.7500 130.0000 163.5000 Du        
  17211 ****       126.7500 130.0000 163.7500 Du        
  17212 ****       126.7500 130.0000 164.0000 Du        
  17213 ****       126.7500 130.2500 163.0000 Du        
  17214 ****       126.7500 130.2500 163.2500 Du        
  17215 ****       126.7500 130.2500 163.5000 Du        
  17216 ****       126.7500 130.2500 163.7500 Du        
  17217 ****       126.7500 130.2500 164.0000 Du        
  17218 ****       126.7500 130.5000 163.0000 Du        
  17219 ****       126.7500 130.5000 163.2500 Du        
  17220 ****       126.7500 130.5000 163.5000 Du        
  17221 ****       126.7500 130.5000 163.7500 Du        
  17222 ****       126.7500 130.5000 164.0000 Du        
  17223 ****       126.7500 130.7500 163.0000 Du        
  17224 ****       126.7500 130.7500 163.2500 Du        
  17225 ****       126.7500 130.7500 163.5000 Du        
  17226 ****       126.7500 130.7500 163.7500 Du        
  17227 ****       126.7500 130.7500 164.0000 Du        
  17228 ****       126.7500 131.0000 163.0000 Du        
  17229 ****       126.7500 131.0000 163.5000 Du        
  17230 ****       126.7500 131.0000 163.7500 Du        
  17231 ****       126.7500 131.0000 164.0000 Du        
  17232 ****       126.7500 131.0000 164.2500 Du        
  17233 ****       126.7500 131.2500 163.5000 Du        
  17234 ****       126.7500 131.2500 163.7500 Du        
  17235 ****       126.7500 131.2500 164.0000 Du        
  17236 ****       126.7500 131.2500 164.2500 Du        
  17237 ****       126.7500 131.2500 164.5000 Du        
  17238 ****       126.7500 131.5000 162.0000 Du        
  17239 ****       126.7500 131.5000 162.7500 Du        
  17240 ****       126.7500 131.5000 163.7500 Du        
  17241 ****       126.7500 131.5000 164.0000 Du        
  17242 ****       126.7500 131.5000 164.2500 Du        
  17243 ****       126.7500 131.5000 164.5000 Du        
  17244 ****       126.7500 131.5000 164.7500 Du        
  17245 ****       126.7500 131.7500 161.2500 Du        
  17246 ****       126.7500 131.7500 161.5000 Du        
  17247 ****       126.7500 131.7500 161.7500 Du        
  17248 ****       126.7500 131.7500 162.0000 Du        
  17249 ****       126.7500 131.7500 162.2500 Du        
  17250 ****       126.7500 131.7500 162.5000 Du        
  17251 ****       126.7500 131.7500 162.7500 Du        
  17252 ****       126.7500 131.7500 163.5000 Du        
  17253 ****       126.7500 131.7500 163.7500 Du        
  17254 ****       126.7500 131.7500 164.0000 Du        
  17255 ****       126.7500 131.7500 164.2500 Du        
  17256 ****       126.7500 131.7500 164.5000 Du        
  17257 ****       126.7500 131.7500 164.7500 Du        
  17258 ****       126.7500 131.7500 165.0000 Du        
  17259 ****       126.7500 132.0000 160.5000 Du        
  17260 ****       126.7500 132.0000 160.7500 Du        
  17261 ****       126.7500 132.0000 161.0000 Du        
  17262 ****       126.7500 132.0000 161.2500 Du        
  17263 ****       126.7500 132.0000 161.5000 Du        
  17264 ****       126.7500 132.0000 161.7500 Du        
  17265 ****       126.7500 132.0000 162.0000 Du        
  17266 ****       126.7500 132.0000 162.2500 Du        
  17267 ****       126.7500 132.0000 162.5000 Du        
  17268 ****       126.7500 132.0000 162.7500 Du        
  17269 ****       126.7500 132.0000 163.5000 Du        
  17270 ****       126.7500 132.0000 163.7500 Du        
  17271 ****       126.7500 132.0000 164.0000 Du        
  17272 ****       126.7500 132.0000 164.2500 Du        
  17273 ****       126.7500 132.0000 164.5000 Du        
  17274 ****       126.7500 132.0000 164.7500 Du        
  17275 ****       126.7500 132.0000 165.0000 Du        
  17276 ****       126.7500 132.0000 165.2500 Du        
  17277 ****       126.7500 132.2500 160.0000 Du        
  17278 ****       126.7500 132.2500 160.2500 Du        
  17279 ****       126.7500 132.2500 160.5000 Du        
  17280 ****       126.7500 132.2500 160.7500 Du        
  17281 ****       126.7500 132.2500 161.0000 Du        
  17282 ****       126.7500 132.2500 161.2500 Du        
  17283 ****       126.7500 132.2500 161.5000 Du        
  17284 ****       126.7500 132.2500 161.7500 Du        
  17285 ****       126.7500 132.2500 162.0000 Du        
  17286 ****       126.7500 132.2500 162.2500 Du        
  17287 ****       126.7500 132.2500 162.5000 Du        
  17288 ****       126.7500 132.2500 162.7500 Du        
  17289 ****       126.7500 132.2500 163.7500 Du        
  17290 ****       126.7500 132.2500 164.0000 Du        
  17291 ****       126.7500 132.2500 164.2500 Du        
  17292 ****       126.7500 132.2500 164.5000 Du        
  17293 ****       126.7500 132.2500 164.7500 Du        
  17294 ****       126.7500 132.2500 165.0000 Du        
  17295 ****       126.7500 132.2500 165.2500 Du        
  17296 ****       126.7500 132.2500 165.5000 Du        
  17297 ****       126.7500 132.2500 165.7500 Du        
  17298 ****       126.7500 132.5000 159.5000 Du        
  17299 ****       126.7500 132.5000 159.7500 Du        
  17300 ****       126.7500 132.5000 160.0000 Du        
  17301 ****       126.7500 132.5000 160.2500 Du        
  17302 ****       126.7500 132.5000 160.5000 Du        
  17303 ****       126.7500 132.5000 160.7500 Du        
  17304 ****       126.7500 132.5000 161.0000 Du        
  17305 ****       126.7500 132.5000 161.2500 Du        
  17306 ****       126.7500 132.5000 161.5000 Du        
  17307 ****       126.7500 132.5000 161.7500 Du        
  17308 ****       126.7500 132.5000 162.0000 Du        
  17309 ****       126.7500 132.5000 162.2500 Du        
  17310 ****       126.7500 132.5000 162.5000 Du        
  17311 ****       126.7500 132.5000 162.7500 Du        
  17312 ****       126.7500 132.5000 163.0000 Du        
  17313 ****       126.7500 132.5000 163.2500 Du        
  17314 ****       126.7500 132.5000 163.5000 Du        
  17315 ****       126.7500 132.5000 163.7500 Du        
  17316 ****       126.7500 132.5000 164.0000 Du        
  17317 ****       126.7500 132.5000 164.2500 Du        
  17318 ****       126.7500 132.5000 164.5000 Du        
  17319 ****       126.7500 132.5000 164.7500 Du        
  17320 ****       126.7500 132.5000 165.0000 Du        
  17321 ****       126.7500 132.5000 165.2500 Du        
  17322 ****       126.7500 132.5000 165.5000 Du        
  17323 ****       126.7500 132.5000 165.7500 Du        
  17324 ****       126.7500 132.5000 166.0000 Du        
  17325 ****       126.7500 132.7500 159.0000 Du        
  17326 ****       126.7500 132.7500 159.2500 Du        
  17327 ****       126.7500 132.7500 159.5000 Du        
  17328 ****       126.7500 132.7500 159.7500 Du        
  17329 ****       126.7500 132.7500 160.0000 Du        
  17330 ****       126.7500 132.7500 160.2500 Du        
  17331 ****       126.7500 132.7500 160.5000 Du        
  17332 ****       126.7500 132.7500 160.7500 Du        
  17333 ****       126.7500 132.7500 161.0000 Du        
  17334 ****       126.7500 132.7500 161.2500 Du        
  17335 ****       126.7500 132.7500 161.5000 Du        
  17336 ****       126.7500 132.7500 161.7500 Du        
  17337 ****       126.7500 132.7500 162.0000 Du        
  17338 ****       126.7500 132.7500 162.2500 Du        
  17339 ****       126.7500 132.7500 162.5000 Du        
  17340 ****       126.7500 132.7500 162.7500 Du        
  17341 ****       126.7500 132.7500 163.0000 Du        
  17342 ****       126.7500 132.7500 163.2500 Du        
  17343 ****       126.7500 132.7500 163.5000 Du        
  17344 ****       126.7500 132.7500 163.7500 Du        
  17345 ****       126.7500 132.7500 164.0000 Du        
  17346 ****       126.7500 132.7500 164.2500 Du        
  17347 ****       126.7500 132.7500 164.5000 Du        
  17348 ****       126.7500 132.7500 164.7500 Du        
  17349 ****       126.7500 132.7500 165.0000 Du        
  17350 ****       126.7500 132.7500 165.2500 Du        
  17351 ****       126.7500 132.7500 165.5000 Du        
  17352 ****       126.7500 132.7500 165.7500 Du        
  17353 ****       126.7500 132.7500 166.0000 Du        
  17354 ****       126.7500 133.0000 158.7500 Du        
  17355 ****       126.7500 133.0000 159.0000 Du        
  17356 ****       126.7500 133.0000 159.2500 Du        
  17357 ****       126.7500 133.0000 159.5000 Du        
  17358 ****       126.7500 133.0000 159.7500 Du        
  17359 ****       126.7500 133.0000 160.0000 Du        
  17360 ****       126.7500 133.0000 160.2500 Du        
  17361 ****       126.7500 133.0000 160.5000 Du        
  17362 ****       126.7500 133.0000 160.7500 Du        
  17363 ****       126.7500 133.0000 161.0000 Du        
  17364 ****       126.7500 133.0000 161.2500 Du        
  17365 ****       126.7500 133.0000 161.5000 Du        
  17366 ****       126.7500 133.0000 161.7500 Du        
  17367 ****       126.7500 133.0000 162.0000 Du        
  17368 ****       126.7500 133.0000 162.2500 Du        
  17369 ****       126.7500 133.0000 162.5000 Du        
  17370 ****       126.7500 133.0000 162.7500 Du        
  17371 ****       126.7500 133.0000 163.0000 Du        
  17372 ****       126.7500 133.0000 163.2500 Du        
  17373 ****       126.7500 133.0000 163.5000 Du        
  17374 ****       126.7500 133.0000 163.7500 Du        
  17375 ****       126.7500 133.0000 164.0000 Du        
  17376 ****       126.7500 133.0000 164.2500 Du        
  17377 ****       126.7500 133.0000 164.5000 Du        
  17378 ****       126.7500 133.0000 164.7500 Du        
  17379 ****       126.7500 133.0000 165.0000 Du        
  17380 ****       126.7500 133.0000 165.2500 Du        
  17381 ****       126.7500 133.0000 165.5000 Du        
  17382 ****       126.7500 133.0000 165.7500 Du        
  17383 ****       126.7500 133.0000 166.0000 Du        
  17384 ****       126.7500 133.2500 158.5000 Du        
  17385 ****       126.7500 133.2500 158.7500 Du        
  17386 ****       126.7500 133.2500 159.0000 Du        
  17387 ****       126.7500 133.2500 159.2500 Du        
  17388 ****       126.7500 133.2500 159.5000 Du        
  17389 ****       126.7500 133.2500 159.7500 Du        
  17390 ****       126.7500 133.2500 160.0000 Du        
  17391 ****       126.7500 133.2500 160.2500 Du        
  17392 ****       126.7500 133.2500 160.5000 Du        
  17393 ****       126.7500 133.2500 160.7500 Du        
  17394 ****       126.7500 133.2500 161.0000 Du        
  17395 ****       126.7500 133.2500 161.2500 Du        
  17396 ****       126.7500 133.2500 161.5000 Du        
  17397 ****       126.7500 133.2500 161.7500 Du        
  17398 ****       126.7500 133.2500 162.0000 Du        
  17399 ****       126.7500 133.2500 162.2500 Du        
  17400 ****       126.7500 133.2500 162.5000 Du        
  17401 ****       126.7500 133.2500 162.7500 Du        
  17402 ****       126.7500 133.2500 163.0000 Du        
  17403 ****       126.7500 133.2500 163.2500 Du        
  17404 ****       126.7500 133.2500 163.5000 Du        
  17405 ****       126.7500 133.2500 163.7500 Du        
  17406 ****       126.7500 133.2500 164.0000 Du        
  17407 ****       126.7500 133.2500 164.2500 Du        
  17408 ****       126.7500 133.2500 164.5000 Du        
  17409 ****       126.7500 133.2500 164.7500 Du        
  17410 ****       126.7500 133.2500 165.0000 Du        
  17411 ****       126.7500 133.2500 165.2500 Du        
  17412 ****       126.7500 133.2500 165.5000 Du        
  17413 ****       126.7500 133.2500 165.7500 Du        
  17414 ****       126.7500 133.2500 166.0000 Du        
  17415 ****       126.7500 133.5000 158.5000 Du        
  17416 ****       126.7500 133.5000 158.7500 Du        
  17417 ****       126.7500 133.5000 159.0000 Du        
  17418 ****       126.7500 133.5000 159.2500 Du        
  17419 ****       126.7500 133.5000 159.5000 Du        
  17420 ****       126.7500 133.5000 159.7500 Du        
  17421 ****       126.7500 133.5000 160.0000 Du        
  17422 ****       126.7500 133.5000 160.2500 Du        
  17423 ****       126.7500 133.5000 160.5000 Du        
  17424 ****       126.7500 133.5000 160.7500 Du        
  17425 ****       126.7500 133.5000 161.0000 Du        
  17426 ****       126.7500 133.5000 161.2500 Du        
  17427 ****       126.7500 133.5000 161.5000 Du        
  17428 ****       126.7500 133.5000 161.7500 Du        
  17429 ****       126.7500 133.5000 162.0000 Du        
  17430 ****       126.7500 133.5000 162.2500 Du        
  17431 ****       126.7500 133.5000 162.5000 Du        
  17432 ****       126.7500 133.5000 162.7500 Du        
  17433 ****       126.7500 133.5000 163.0000 Du        
  17434 ****       126.7500 133.5000 163.2500 Du        
  17435 ****       126.7500 133.5000 163.5000 Du        
  17436 ****       126.7500 133.5000 163.7500 Du        
  17437 ****       126.7500 133.5000 164.0000 Du        
  17438 ****       126.7500 133.5000 164.2500 Du        
  17439 ****       126.7500 133.5000 164.5000 Du        
  17440 ****       126.7500 133.5000 164.7500 Du        
  17441 ****       126.7500 133.5000 165.0000 Du        
  17442 ****       126.7500 133.5000 165.2500 Du        
  17443 ****       126.7500 133.5000 165.5000 Du        
  17444 ****       126.7500 133.5000 165.7500 Du        
  17445 ****       126.7500 133.7500 157.5000 Du        
  17446 ****       126.7500 133.7500 157.7500 Du        
  17447 ****       126.7500 133.7500 158.0000 Du        
  17448 ****       126.7500 133.7500 158.2500 Du        
  17449 ****       126.7500 133.7500 158.5000 Du        
  17450 ****       126.7500 133.7500 158.7500 Du        
  17451 ****       126.7500 133.7500 159.0000 Du        
  17452 ****       126.7500 133.7500 159.2500 Du        
  17453 ****       126.7500 133.7500 159.5000 Du        
  17454 ****       126.7500 133.7500 159.7500 Du        
  17455 ****       126.7500 133.7500 160.0000 Du        
  17456 ****       126.7500 133.7500 160.2500 Du        
  17457 ****       126.7500 133.7500 160.5000 Du        
  17458 ****       126.7500 133.7500 160.7500 Du        
  17459 ****       126.7500 133.7500 161.0000 Du        
  17460 ****       126.7500 133.7500 161.2500 Du        
  17461 ****       126.7500 133.7500 161.5000 Du        
  17462 ****       126.7500 133.7500 161.7500 Du        
  17463 ****       126.7500 133.7500 162.0000 Du        
  17464 ****       126.7500 133.7500 162.2500 Du        
  17465 ****       126.7500 133.7500 164.2500 Du        
  17466 ****       126.7500 133.7500 164.5000 Du        
  17467 ****       126.7500 133.7500 164.7500 Du        
  17468 ****       126.7500 133.7500 165.0000 Du        
  17469 ****       126.7500 133.7500 165.2500 Du        
  17470 ****       126.7500 133.7500 165.5000 Du        
  17471 ****       126.7500 133.7500 165.7500 Du        
  17472 ****       126.7500 134.0000 157.2500 Du        
  17473 ****       126.7500 134.0000 157.5000 Du        
  17474 ****       126.7500 134.0000 157.7500 Du        
  17475 ****       126.7500 134.0000 158.0000 Du        
  17476 ****       126.7500 134.0000 158.2500 Du        
  17477 ****       126.7500 134.0000 158.5000 Du        
  17478 ****       126.7500 134.0000 158.7500 Du        
  17479 ****       126.7500 134.0000 159.0000 Du        
  17480 ****       126.7500 134.0000 159.2500 Du        
  17481 ****       126.7500 134.0000 159.5000 Du        
  17482 ****       126.7500 134.0000 159.7500 Du        
  17483 ****       126.7500 134.0000 160.0000 Du        
  17484 ****       126.7500 134.0000 160.2500 Du        
  17485 ****       126.7500 134.0000 160.5000 Du        
  17486 ****       126.7500 134.0000 160.7500 Du        
  17487 ****       126.7500 134.0000 161.0000 Du        
  17488 ****       126.7500 134.0000 161.2500 Du        
  17489 ****       126.7500 134.0000 161.5000 Du        
  17490 ****       126.7500 134.0000 161.7500 Du        
  17491 ****       126.7500 134.0000 165.2500 Du        
  17492 ****       126.7500 134.0000 165.5000 Du        
  17493 ****       126.7500 134.2500 157.2500 Du        
  17494 ****       126.7500 134.2500 157.5000 Du        
  17495 ****       126.7500 134.2500 157.7500 Du        
  17496 ****       126.7500 134.2500 158.0000 Du        
  17497 ****       126.7500 134.2500 158.2500 Du        
  17498 ****       126.7500 134.2500 158.5000 Du        
  17499 ****       126.7500 134.2500 158.7500 Du        
  17500 ****       126.7500 134.2500 159.0000 Du        
  17501 ****       126.7500 134.2500 159.2500 Du        
  17502 ****       126.7500 134.2500 159.5000 Du        
  17503 ****       126.7500 134.2500 159.7500 Du        
  17504 ****       126.7500 134.5000 157.0000 Du        
  17505 ****       126.7500 134.5000 157.2500 Du        
  17506 ****       126.7500 134.5000 157.5000 Du        
  17507 ****       126.7500 134.5000 157.7500 Du        
  17508 ****       126.7500 134.5000 158.0000 Du        
  17509 ****       126.7500 134.5000 158.2500 Du        
  17510 ****       126.7500 134.5000 158.5000 Du        
  17511 ****       126.7500 134.5000 158.7500 Du        
  17512 ****       126.7500 134.5000 159.0000 Du        
  17513 ****       126.7500 134.7500 157.0000 Du        
  17514 ****       126.7500 134.7500 157.2500 Du        
  17515 ****       126.7500 134.7500 157.5000 Du        
  17516 ****       126.7500 134.7500 157.7500 Du        
  17517 ****       126.7500 134.7500 158.0000 Du        
  17518 ****       126.7500 134.7500 158.2500 Du        
  17519 ****       126.7500 135.0000 157.2500 Du        
  17520 ****       126.7500 135.0000 157.5000 Du        
  17521 ****       126.7500 137.0000  95.0000 Du        
  17522 ****       126.7500 137.2500  94.7500 Du        
  17523 ****       126.7500 137.2500  95.0000 Du        
  17524 ****       126.7500 137.2500  95.2500 Du        
  17525 ****       126.7500 137.2500  95.5000 Du        
  17526 ****       126.7500 137.5000  94.2500 Du        
  17527 ****       126.7500 137.5000  94.5000 Du        
  17528 ****       126.7500 137.5000  94.7500 Du        
  17529 ****       126.7500 137.5000  95.0000 Du        
  17530 ****       126.7500 137.5000  95.2500 Du        
  17531 ****       126.7500 137.5000  95.5000 Du        
  17532 ****       126.7500 137.5000  95.7500 Du        
  17533 ****       126.7500 137.7500  94.0000 Du        
  17534 ****       126.7500 137.7500  94.2500 Du        
  17535 ****       126.7500 137.7500  94.5000 Du        
  17536 ****       126.7500 137.7500  94.7500 Du        
  17537 ****       126.7500 137.7500  95.0000 Du        
  17538 ****       126.7500 137.7500  95.2500 Du        
  17539 ****       126.7500 137.7500  95.5000 Du        
  17540 ****       126.7500 137.7500  95.7500 Du        
  17541 ****       126.7500 137.7500  96.0000 Du        
  17542 ****       126.7500 137.7500  96.2500 Du        
  17543 ****       126.7500 138.0000  93.7500 Du        
  17544 ****       126.7500 138.0000  94.0000 Du        
  17545 ****       126.7500 138.0000  94.2500 Du        
  17546 ****       126.7500 138.0000  94.5000 Du        
  17547 ****       126.7500 138.0000  94.7500 Du        
  17548 ****       126.7500 138.0000  95.0000 Du        
  17549 ****       126.7500 138.0000  95.2500 Du        
  17550 ****       126.7500 138.0000  95.5000 Du        
  17551 ****       126.7500 138.0000  95.7500 Du        
  17552 ****       126.7500 138.0000  96.0000 Du        
  17553 ****       126.7500 138.0000  96.2500 Du        
  17554 ****       126.7500 138.0000  96.5000 Du        
  17555 ****       126.7500 138.0000  96.7500 Du        
  17556 ****       126.7500 138.2500  93.5000 Du        
  17557 ****       126.7500 138.2500  93.7500 Du        
  17558 ****       126.7500 138.2500  94.0000 Du        
  17559 ****       126.7500 138.2500  94.2500 Du        
  17560 ****       126.7500 138.2500  94.5000 Du        
  17561 ****       126.7500 138.2500  94.7500 Du        
  17562 ****       126.7500 138.2500  95.0000 Du        
  17563 ****       126.7500 138.2500  95.2500 Du        
  17564 ****       126.7500 138.2500  95.5000 Du        
  17565 ****       126.7500 138.2500  95.7500 Du        
  17566 ****       126.7500 138.2500  96.0000 Du        
  17567 ****       126.7500 138.2500  96.2500 Du        
  17568 ****       126.7500 138.2500  96.5000 Du        
  17569 ****       126.7500 138.2500  96.7500 Du        
  17570 ****       126.7500 138.5000  93.7500 Du        
  17571 ****       126.7500 138.5000  94.0000 Du        
  17572 ****       126.7500 138.5000  94.2500 Du        
  17573 ****       126.7500 138.5000  94.5000 Du        
  17574 ****       126.7500 138.5000  94.7500 Du        
  17575 ****       126.7500 138.5000  95.0000 Du        
  17576 ****       126.7500 138.5000  95.2500 Du        
  17577 ****       126.7500 138.5000  95.5000 Du        
  17578 ****       126.7500 138.5000  95.7500 Du        
  17579 ****       126.7500 138.5000  96.0000 Du        
  17580 ****       126.7500 138.5000  96.2500 Du        
  17581 ****       126.7500 138.5000  96.5000 Du        
  17582 ****       126.7500 138.5000  96.7500 Du        
  17583 ****       126.7500 138.5000  97.0000 Du        
  17584 ****       126.7500 138.7500  93.7500 Du        
  17585 ****       126.7500 138.7500  94.0000 Du        
  17586 ****       126.7500 138.7500  94.2500 Du        
  17587 ****       126.7500 138.7500  94.7500 Du        
  17588 ****       126.7500 138.7500  95.0000 Du        
  17589 ****       126.7500 138.7500  95.2500 Du        
  17590 ****       126.7500 138.7500  95.5000 Du        
  17591 ****       126.7500 138.7500  95.7500 Du        
  17592 ****       126.7500 138.7500  96.0000 Du        
  17593 ****       126.7500 138.7500  96.2500 Du        
  17594 ****       126.7500 138.7500  96.5000 Du        
  17595 ****       126.7500 138.7500  96.7500 Du        
  17596 ****       126.7500 138.7500  97.0000 Du        
  17597 ****       126.7500 138.7500  97.2500 Du        
  17598 ****       126.7500 139.0000  95.2500 Du        
  17599 ****       126.7500 139.0000  95.5000 Du        
  17600 ****       126.7500 139.0000  95.7500 Du        
  17601 ****       126.7500 139.0000  96.0000 Du        
  17602 ****       126.7500 139.0000  96.2500 Du        
  17603 ****       126.7500 139.0000  96.5000 Du        
  17604 ****       126.7500 139.0000  96.7500 Du        
  17605 ****       126.7500 139.0000  97.0000 Du        
  17606 ****       126.7500 139.0000  97.2500 Du        
  17607 ****       126.7500 139.2500  90.7500 Du        
  17608 ****       126.7500 139.2500  91.0000 Du        
  17609 ****       126.7500 139.2500  91.2500 Du        
  17610 ****       126.7500 139.2500  91.5000 Du        
  17611 ****       126.7500 139.2500  91.7500 Du        
  17612 ****       126.7500 139.2500  92.0000 Du        
  17613 ****       126.7500 139.2500  96.2500 Du        
  17614 ****       126.7500 139.2500  96.5000 Du        
  17615 ****       126.7500 139.2500  96.7500 Du        
  17616 ****       126.7500 139.2500  97.0000 Du        
  17617 ****       126.7500 139.2500  97.2500 Du        
  17618 ****       126.7500 139.5000  90.5000 Du        
  17619 ****       126.7500 139.5000  90.7500 Du        
  17620 ****       126.7500 139.5000  91.0000 Du        
  17621 ****       126.7500 139.5000  91.2500 Du        
  17622 ****       126.7500 139.5000  96.7500 Du        
  17623 ****       126.7500 139.5000  97.0000 Du        
  17624 ****       126.7500 139.5000  97.2500 Du        
  17625 ****       126.7500 139.5000  97.5000 Du        
  17626 ****       126.7500 139.5000  97.7500 Du        
  17627 ****       126.7500 139.7500  90.2500 Du        
  17628 ****       126.7500 139.7500  90.5000 Du        
  17629 ****       126.7500 139.7500  90.7500 Du        
  17630 ****       126.7500 139.7500  91.0000 Du        
  17631 ****       126.7500 139.7500  91.2500 Du        
  17632 ****       126.7500 139.7500  96.7500 Du        
  17633 ****       126.7500 139.7500  97.0000 Du        
  17634 ****       126.7500 139.7500  97.2500 Du        
  17635 ****       126.7500 139.7500  97.5000 Du        
  17636 ****       126.7500 139.7500  97.7500 Du        
  17637 ****       126.7500 140.0000  90.2500 Du        
  17638 ****       126.7500 140.0000  90.5000 Du        
  17639 ****       126.7500 140.0000  90.7500 Du        
  17640 ****       126.7500 140.0000  91.0000 Du        
  17641 ****       126.7500 140.0000  91.2500 Du        
  17642 ****       126.7500 140.0000  97.0000 Du        
  17643 ****       126.7500 140.0000  97.2500 Du        
  17644 ****       126.7500 140.0000  97.5000 Du        
  17645 ****       126.7500 140.0000  97.7500 Du        
  17646 ****       126.7500 140.0000  98.0000 Du        
  17647 ****       126.7500 140.2500  90.5000 Du        
  17648 ****       126.7500 140.2500  90.7500 Du        
  17649 ****       126.7500 140.2500  91.0000 Du        
  17650 ****       126.7500 140.2500  97.0000 Du        
  17651 ****       126.7500 140.2500  97.2500 Du        
  17652 ****       126.7500 140.2500  97.5000 Du        
  17653 ****       126.7500 140.2500  97.7500 Du        
  17654 ****       126.7500 140.2500  98.0000 Du        
  17655 ****       126.7500 140.2500  98.2500 Du        
  17656 ****       126.7500 140.5000  97.2500 Du        
  17657 ****       126.7500 140.5000  97.5000 Du        
  17658 ****       126.7500 140.5000  97.7500 Du        
  17659 ****       126.7500 140.5000  98.0000 Du        
  17660 ****       126.7500 140.7500  97.2500 Du        
  17661 ****       126.7500 140.7500  97.5000 Du        
  17662 ****       126.7500 140.7500  97.7500 Du        
  17663 ****       126.7500 140.7500  98.0000 Du        
  17664 ****       126.7500 140.7500  98.2500 Du        
  17665 ****       126.7500 141.0000  97.7500 Du        
  17666 ****       126.7500 143.5000  91.7500 Du        
  17667 ****       126.7500 143.5000  92.0000 Du        
  17668 ****       126.7500 143.7500  91.7500 Du        
  17669 ****       126.7500 143.7500  92.0000 Du        
  17670 ****       126.7500 143.7500  92.2500 Du        
  17671 ****       126.7500 143.7500  92.5000 Du        
  17672 ****       126.7500 143.7500  92.7500 Du        
  17673 ****       126.7500 143.7500  93.0000 Du        
  17674 ****       126.7500 144.0000  92.7500 Du        
  17675 ****       126.7500 144.0000  93.0000 Du        
  17676 ****       126.7500 144.0000  93.2500 Du        
  17677 ****       126.7500 154.5000 111.2500 Du        
  17678 ****       126.7500 154.5000 157.7500 Du        
  17679 ****       126.7500 154.5000 158.0000 Du        
  17680 ****       126.7500 154.7500 111.0000 Du        
  17681 ****       126.7500 154.7500 111.2500 Du        
  17682 ****       126.7500 154.7500 111.5000 Du        
  17683 ****       126.7500 154.7500 111.7500 Du        
  17684 ****       126.7500 154.7500 157.5000 Du        
  17685 ****       126.7500 154.7500 157.7500 Du        
  17686 ****       126.7500 154.7500 158.0000 Du        
  17687 ****       126.7500 154.7500 158.2500 Du        
  17688 ****       126.7500 154.7500 158.5000 Du        
  17689 ****       126.7500 155.0000 111.0000 Du        
  17690 ****       126.7500 155.0000 111.2500 Du        
  17691 ****       126.7500 155.0000 111.5000 Du        
  17692 ****       126.7500 155.0000 157.5000 Du        
  17693 ****       126.7500 155.0000 157.7500 Du        
  17694 ****       126.7500 155.0000 158.0000 Du        
  17695 ****       126.7500 155.0000 158.2500 Du        
  17696 ****       126.7500 155.0000 158.5000 Du        
  17697 ****       126.7500 155.0000 158.7500 Du        
  17698 ****       126.7500 155.2500 111.2500 Du        
  17699 ****       126.7500 155.2500 157.5000 Du        
  17700 ****       126.7500 155.2500 157.7500 Du        
  17701 ****       126.7500 155.2500 158.0000 Du        
  17702 ****       126.7500 155.2500 158.2500 Du        
  17703 ****       126.7500 155.2500 158.5000 Du        
  17704 ****       126.7500 155.2500 158.7500 Du        
  17705 ****       126.7500 155.5000 157.7500 Du        
  17706 ****       126.7500 155.5000 158.0000 Du        
  17707 ****       126.7500 155.5000 158.2500 Du        
  17708 ****       126.7500 155.5000 158.5000 Du        
  17709 ****       126.7500 155.5000 158.7500 Du        
  17710 ****       126.7500 155.5000 159.0000 Du        
  17711 ****       126.7500 155.7500 157.7500 Du        
  17712 ****       126.7500 155.7500 158.0000 Du        
  17713 ****       126.7500 155.7500 158.2500 Du        
  17714 ****       126.7500 155.7500 158.5000 Du        
  17715 ****       126.7500 155.7500 158.7500 Du        
  17716 ****       126.7500 155.7500 159.0000 Du        
  17717 ****       126.7500 156.0000 157.7500 Du        
  17718 ****       126.7500 156.0000 158.0000 Du        
  17719 ****       126.7500 156.0000 158.2500 Du        
  17720 ****       126.7500 156.0000 158.5000 Du        
  17721 ****       126.7500 156.0000 158.7500 Du        
  17722 ****       126.7500 156.0000 159.0000 Du        
  17723 ****       126.7500 156.0000 159.2500 Du        
  17724 ****       126.7500 156.2500 158.0000 Du        
  17725 ****       126.7500 156.2500 158.2500 Du        
  17726 ****       126.7500 156.2500 158.5000 Du        
  17727 ****       126.7500 156.2500 158.7500 Du        
  17728 ****       126.7500 156.2500 159.0000 Du        
  17729 ****       126.7500 156.2500 159.2500 Du        
  17730 ****       126.7500 156.5000 158.0000 Du        
  17731 ****       126.7500 156.5000 158.2500 Du        
  17732 ****       126.7500 156.5000 158.5000 Du        
  17733 ****       126.7500 156.5000 158.7500 Du        
  17734 ****       126.7500 156.5000 159.0000 Du        
  17735 ****       126.7500 156.5000 159.2500 Du        
  17736 ****       126.7500 156.5000 159.5000 Du        
  17737 ****       126.7500 156.7500 158.2500 Du        
  17738 ****       126.7500 156.7500 158.5000 Du        
  17739 ****       126.7500 156.7500 158.7500 Du        
  17740 ****       126.7500 156.7500 159.0000 Du        
  17741 ****       126.7500 156.7500 159.2500 Du        
  17742 ****       127.0000 121.0000 156.0000 Du        
  17743 ****       127.0000 121.0000 156.2500 Du        
  17744 ****       127.0000 121.0000 156.5000 Du        
  17745 ****       127.0000 121.0000 156.7500 Du        
  17746 ****       127.0000 121.0000 157.0000 Du        
  17747 ****       127.0000 121.0000 164.7500 Du        
  17748 ****       127.0000 121.0000 165.0000 Du        
  17749 ****       127.0000 121.0000 165.2500 Du        
  17750 ****       127.0000 121.2500 156.0000 Du        
  17751 ****       127.0000 121.2500 156.2500 Du        
  17752 ****       127.0000 121.2500 156.5000 Du        
  17753 ****       127.0000 121.2500 156.7500 Du        
  17754 ****       127.0000 121.2500 157.0000 Du        
  17755 ****       127.0000 121.2500 164.7500 Du        
  17756 ****       127.0000 121.2500 165.0000 Du        
  17757 ****       127.0000 121.2500 165.2500 Du        
  17758 ****       127.0000 121.5000 155.7500 Du        
  17759 ****       127.0000 121.5000 156.0000 Du        
  17760 ****       127.0000 121.5000 156.2500 Du        
  17761 ****       127.0000 121.5000 156.5000 Du        
  17762 ****       127.0000 121.5000 156.7500 Du        
  17763 ****       127.0000 121.5000 157.0000 Du        
  17764 ****       127.0000 121.5000 164.5000 Du        
  17765 ****       127.0000 121.5000 164.7500 Du        
  17766 ****       127.0000 121.5000 165.0000 Du        
  17767 ****       127.0000 121.7500 155.7500 Du        
  17768 ****       127.0000 121.7500 156.0000 Du        
  17769 ****       127.0000 121.7500 156.2500 Du        
  17770 ****       127.0000 121.7500 156.5000 Du        
  17771 ****       127.0000 121.7500 156.7500 Du        
  17772 ****       127.0000 121.7500 157.0000 Du        
  17773 ****       127.0000 121.7500 164.5000 Du        
  17774 ****       127.0000 121.7500 164.7500 Du        
  17775 ****       127.0000 121.7500 165.0000 Du        
  17776 ****       127.0000 122.0000 155.7500 Du        
  17777 ****       127.0000 122.0000 156.0000 Du        
  17778 ****       127.0000 122.0000 156.2500 Du        
  17779 ****       127.0000 122.0000 156.5000 Du        
  17780 ****       127.0000 122.0000 156.7500 Du        
  17781 ****       127.0000 122.0000 157.0000 Du        
  17782 ****       127.0000 122.0000 157.2500 Du        
  17783 ****       127.0000 122.0000 164.5000 Du        
  17784 ****       127.0000 122.0000 164.7500 Du        
  17785 ****       127.0000 122.0000 165.0000 Du        
  17786 ****       127.0000 122.2500 156.0000 Du        
  17787 ****       127.0000 122.2500 156.2500 Du        
  17788 ****       127.0000 122.2500 156.5000 Du        
  17789 ****       127.0000 122.2500 156.7500 Du        
  17790 ****       127.0000 122.2500 157.0000 Du        
  17791 ****       127.0000 122.2500 157.2500 Du        
  17792 ****       127.0000 122.5000 104.5000 Du        
  17793 ****       127.0000 122.5000 104.7500 Du        
  17794 ****       127.0000 122.5000 156.7500 Du        
  17795 ****       127.0000 122.5000 157.0000 Du        
  17796 ****       127.0000 122.5000 157.2500 Du        
  17797 ****       127.0000 122.7500 104.5000 Du        
  17798 ****       127.0000 122.7500 157.2500 Du        
  17799 ****       127.0000 123.0000 157.5000 Du        
  17800 ****       127.0000 123.0000 157.7500 Du        
  17801 ****       127.0000 123.2500 157.7500 Du        
  17802 ****       127.0000 129.5000 163.7500 Du        
  17803 ****       127.0000 129.7500 163.2500 Du        
  17804 ****       127.0000 129.7500 163.5000 Du        
  17805 ****       127.0000 129.7500 163.7500 Du        
  17806 ****       127.0000 129.7500 164.0000 Du        
  17807 ****       127.0000 130.0000 163.2500 Du        
  17808 ****       127.0000 130.0000 163.5000 Du        
  17809 ****       127.0000 130.0000 163.7500 Du        
  17810 ****       127.0000 130.0000 164.0000 Du        
  17811 ****       127.0000 130.2500 163.2500 Du        
  17812 ****       127.0000 130.2500 163.5000 Du        
  17813 ****       127.0000 130.2500 163.7500 Du        
  17814 ****       127.0000 130.2500 164.0000 Du        
  17815 ****       127.0000 130.5000 163.2500 Du        
  17816 ****       127.0000 130.5000 163.5000 Du        
  17817 ****       127.0000 130.5000 163.7500 Du        
  17818 ****       127.0000 130.5000 164.0000 Du        
  17819 ****       127.0000 130.7500 163.5000 Du        
  17820 ****       127.0000 130.7500 163.7500 Du        
  17821 ****       127.0000 130.7500 164.0000 Du        
  17822 ****       127.0000 132.0000 160.5000 Du        
  17823 ****       127.0000 132.0000 160.7500 Du        
  17824 ****       127.0000 132.0000 161.0000 Du        
  17825 ****       127.0000 132.0000 161.2500 Du        
  17826 ****       127.0000 132.0000 161.5000 Du        
  17827 ****       127.0000 132.0000 161.7500 Du        
  17828 ****       127.0000 132.0000 165.0000 Du        
  17829 ****       127.0000 132.0000 165.2500 Du        
  17830 ****       127.0000 132.2500 159.5000 Du        
  17831 ****       127.0000 132.2500 159.7500 Du        
  17832 ****       127.0000 132.2500 160.0000 Du        
  17833 ****       127.0000 132.2500 160.2500 Du        
  17834 ****       127.0000 132.2500 160.5000 Du        
  17835 ****       127.0000 132.2500 160.7500 Du        
  17836 ****       127.0000 132.2500 161.0000 Du        
  17837 ****       127.0000 132.2500 161.2500 Du        
  17838 ****       127.0000 132.2500 161.5000 Du        
  17839 ****       127.0000 132.2500 161.7500 Du        
  17840 ****       127.0000 132.2500 165.0000 Du        
  17841 ****       127.0000 132.2500 165.2500 Du        
  17842 ****       127.0000 132.2500 165.5000 Du        
  17843 ****       127.0000 132.2500 165.7500 Du        
  17844 ****       127.0000 132.5000 159.0000 Du        
  17845 ****       127.0000 132.5000 159.2500 Du        
  17846 ****       127.0000 132.5000 159.5000 Du        
  17847 ****       127.0000 132.5000 159.7500 Du        
  17848 ****       127.0000 132.5000 160.0000 Du        
  17849 ****       127.0000 132.5000 160.2500 Du        
  17850 ****       127.0000 132.5000 160.5000 Du        
  17851 ****       127.0000 132.5000 160.7500 Du        
  17852 ****       127.0000 132.5000 161.0000 Du        
  17853 ****       127.0000 132.5000 161.2500 Du        
  17854 ****       127.0000 132.5000 161.5000 Du        
  17855 ****       127.0000 132.5000 165.0000 Du        
  17856 ****       127.0000 132.5000 165.2500 Du        
  17857 ****       127.0000 132.5000 165.5000 Du        
  17858 ****       127.0000 132.5000 165.7500 Du        
  17859 ****       127.0000 132.5000 166.0000 Du        
  17860 ****       127.0000 132.7500 158.7500 Du        
  17861 ****       127.0000 132.7500 159.0000 Du        
  17862 ****       127.0000 132.7500 159.2500 Du        
  17863 ****       127.0000 132.7500 159.5000 Du        
  17864 ****       127.0000 132.7500 159.7500 Du        
  17865 ****       127.0000 132.7500 160.0000 Du        
  17866 ****       127.0000 132.7500 160.2500 Du        
  17867 ****       127.0000 132.7500 160.5000 Du        
  17868 ****       127.0000 132.7500 160.7500 Du        
  17869 ****       127.0000 132.7500 161.0000 Du        
  17870 ****       127.0000 132.7500 161.2500 Du        
  17871 ****       127.0000 132.7500 161.5000 Du        
  17872 ****       127.0000 132.7500 164.7500 Du        
  17873 ****       127.0000 132.7500 165.0000 Du        
  17874 ****       127.0000 132.7500 165.2500 Du        
  17875 ****       127.0000 132.7500 165.5000 Du        
  17876 ****       127.0000 132.7500 165.7500 Du        
  17877 ****       127.0000 132.7500 166.0000 Du        
  17878 ****       127.0000 133.0000 158.5000 Du        
  17879 ****       127.0000 133.0000 158.7500 Du        
  17880 ****       127.0000 133.0000 159.0000 Du        
  17881 ****       127.0000 133.0000 159.2500 Du        
  17882 ****       127.0000 133.0000 159.5000 Du        
  17883 ****       127.0000 133.0000 159.7500 Du        
  17884 ****       127.0000 133.0000 160.0000 Du        
  17885 ****       127.0000 133.0000 160.2500 Du        
  17886 ****       127.0000 133.0000 160.5000 Du        
  17887 ****       127.0000 133.0000 160.7500 Du        
  17888 ****       127.0000 133.0000 161.0000 Du        
  17889 ****       127.0000 133.0000 161.2500 Du        
  17890 ****       127.0000 133.0000 161.5000 Du        
  17891 ****       127.0000 133.0000 161.7500 Du        
  17892 ****       127.0000 133.0000 164.5000 Du        
  17893 ****       127.0000 133.0000 164.7500 Du        
  17894 ****       127.0000 133.0000 165.0000 Du        
  17895 ****       127.0000 133.0000 165.2500 Du        
  17896 ****       127.0000 133.0000 165.5000 Du        
  17897 ****       127.0000 133.0000 165.7500 Du        
  17898 ****       127.0000 133.0000 166.0000 Du        
  17899 ****       127.0000 133.2500 158.2500 Du        
  17900 ****       127.0000 133.2500 158.5000 Du        
  17901 ****       127.0000 133.2500 158.7500 Du        
  17902 ****       127.0000 133.2500 159.0000 Du        
  17903 ****       127.0000 133.2500 159.2500 Du        
  17904 ****       127.0000 133.2500 159.5000 Du        
  17905 ****       127.0000 133.2500 159.7500 Du        
  17906 ****       127.0000 133.2500 160.0000 Du        
  17907 ****       127.0000 133.2500 160.2500 Du        
  17908 ****       127.0000 133.2500 160.5000 Du        
  17909 ****       127.0000 133.2500 160.7500 Du        
  17910 ****       127.0000 133.2500 161.0000 Du        
  17911 ****       127.0000 133.2500 161.2500 Du        
  17912 ****       127.0000 133.2500 161.5000 Du        
  17913 ****       127.0000 133.2500 161.7500 Du        
  17914 ****       127.0000 133.2500 164.0000 Du        
  17915 ****       127.0000 133.2500 164.2500 Du        
  17916 ****       127.0000 133.2500 164.5000 Du        
  17917 ****       127.0000 133.2500 164.7500 Du        
  17918 ****       127.0000 133.2500 165.0000 Du        
  17919 ****       127.0000 133.2500 165.2500 Du        
  17920 ****       127.0000 133.2500 165.5000 Du        
  17921 ****       127.0000 133.2500 165.7500 Du        
  17922 ****       127.0000 133.5000 158.0000 Du        
  17923 ****       127.0000 133.5000 158.2500 Du        
  17924 ****       127.0000 133.5000 158.5000 Du        
  17925 ****       127.0000 133.5000 158.7500 Du        
  17926 ****       127.0000 133.5000 159.0000 Du        
  17927 ****       127.0000 133.5000 159.2500 Du        
  17928 ****       127.0000 133.5000 159.5000 Du        
  17929 ****       127.0000 133.5000 159.7500 Du        
  17930 ****       127.0000 133.5000 160.0000 Du        
  17931 ****       127.0000 133.5000 160.2500 Du        
  17932 ****       127.0000 133.5000 160.5000 Du        
  17933 ****       127.0000 133.5000 160.7500 Du        
  17934 ****       127.0000 133.5000 161.0000 Du        
  17935 ****       127.0000 133.5000 161.2500 Du        
  17936 ****       127.0000 133.5000 161.5000 Du        
  17937 ****       127.0000 133.5000 161.7500 Du        
  17938 ****       127.0000 133.5000 164.0000 Du        
  17939 ****       127.0000 133.5000 164.2500 Du        
  17940 ****       127.0000 133.5000 164.5000 Du        
  17941 ****       127.0000 133.5000 164.7500 Du        
  17942 ****       127.0000 133.5000 165.0000 Du        
  17943 ****       127.0000 133.5000 165.2500 Du        
  17944 ****       127.0000 133.5000 165.5000 Du        
  17945 ****       127.0000 133.5000 165.7500 Du        
  17946 ****       127.0000 133.7500 157.5000 Du        
  17947 ****       127.0000 133.7500 157.7500 Du        
  17948 ****       127.0000 133.7500 158.0000 Du        
  17949 ****       127.0000 133.7500 158.2500 Du        
  17950 ****       127.0000 133.7500 158.5000 Du        
  17951 ****       127.0000 133.7500 158.7500 Du        
  17952 ****       127.0000 133.7500 159.0000 Du        
  17953 ****       127.0000 133.7500 159.2500 Du        
  17954 ****       127.0000 133.7500 159.5000 Du        
  17955 ****       127.0000 133.7500 159.7500 Du        
  17956 ****       127.0000 133.7500 160.0000 Du        
  17957 ****       127.0000 133.7500 160.2500 Du        
  17958 ****       127.0000 133.7500 160.5000 Du        
  17959 ****       127.0000 133.7500 160.7500 Du        
  17960 ****       127.0000 133.7500 161.0000 Du        
  17961 ****       127.0000 133.7500 161.2500 Du        
  17962 ****       127.0000 133.7500 161.5000 Du        
  17963 ****       127.0000 133.7500 161.7500 Du        
  17964 ****       127.0000 133.7500 164.0000 Du        
  17965 ****       127.0000 133.7500 164.2500 Du        
  17966 ****       127.0000 133.7500 164.5000 Du        
  17967 ****       127.0000 133.7500 164.7500 Du        
  17968 ****       127.0000 133.7500 165.0000 Du        
  17969 ****       127.0000 133.7500 165.2500 Du        
  17970 ****       127.0000 133.7500 165.5000 Du        
  17971 ****       127.0000 133.7500 165.7500 Du        
  17972 ****       127.0000 134.0000 157.2500 Du        
  17973 ****       127.0000 134.0000 157.5000 Du        
  17974 ****       127.0000 134.0000 157.7500 Du        
  17975 ****       127.0000 134.0000 158.0000 Du        
  17976 ****       127.0000 134.0000 158.2500 Du        
  17977 ****       127.0000 134.0000 158.5000 Du        
  17978 ****       127.0000 134.0000 158.7500 Du        
  17979 ****       127.0000 134.0000 159.0000 Du        
  17980 ****       127.0000 134.0000 159.2500 Du        
  17981 ****       127.0000 134.0000 159.5000 Du        
  17982 ****       127.0000 134.0000 159.7500 Du        
  17983 ****       127.0000 134.0000 160.0000 Du        
  17984 ****       127.0000 134.0000 160.2500 Du        
  17985 ****       127.0000 134.0000 160.5000 Du        
  17986 ****       127.0000 134.0000 160.7500 Du        
  17987 ****       127.0000 134.0000 161.0000 Du        
  17988 ****       127.0000 134.0000 161.2500 Du        
  17989 ****       127.0000 134.0000 161.5000 Du        
  17990 ****       127.0000 134.0000 165.2500 Du        
  17991 ****       127.0000 134.0000 165.5000 Du        
  17992 ****       127.0000 134.2500 157.0000 Du        
  17993 ****       127.0000 134.2500 157.2500 Du        
  17994 ****       127.0000 134.2500 157.5000 Du        
  17995 ****       127.0000 134.2500 157.7500 Du        
  17996 ****       127.0000 134.2500 158.0000 Du        
  17997 ****       127.0000 134.2500 158.2500 Du        
  17998 ****       127.0000 134.2500 158.5000 Du        
  17999 ****       127.0000 134.2500 158.7500 Du        
  18000 ****       127.0000 134.2500 159.0000 Du        
  18001 ****       127.0000 134.2500 159.2500 Du        
  18002 ****       127.0000 134.2500 159.5000 Du        
  18003 ****       127.0000 134.2500 159.7500 Du        
  18004 ****       127.0000 134.5000 157.0000 Du        
  18005 ****       127.0000 134.5000 157.2500 Du        
  18006 ****       127.0000 134.5000 157.5000 Du        
  18007 ****       127.0000 134.5000 157.7500 Du        
  18008 ****       127.0000 134.5000 158.0000 Du        
  18009 ****       127.0000 134.5000 158.2500 Du        
  18010 ****       127.0000 134.5000 158.5000 Du        
  18011 ****       127.0000 134.5000 158.7500 Du        
  18012 ****       127.0000 134.5000 159.0000 Du        
  18013 ****       127.0000 134.7500 157.0000 Du        
  18014 ****       127.0000 134.7500 157.2500 Du        
  18015 ****       127.0000 134.7500 157.5000 Du        
  18016 ****       127.0000 134.7500 157.7500 Du        
  18017 ****       127.0000 134.7500 158.0000 Du        
  18018 ****       127.0000 134.7500 158.2500 Du        
  18019 ****       127.0000 134.7500 158.5000 Du        
  18020 ****       127.0000 135.0000 157.2500 Du        
  18021 ****       127.0000 135.0000 157.5000 Du        
  18022 ****       127.0000 135.0000 157.7500 Du        
  18023 ****       127.0000 137.2500  94.7500 Du        
  18024 ****       127.0000 137.5000  94.2500 Du        
  18025 ****       127.0000 137.5000  94.5000 Du        
  18026 ****       127.0000 137.5000  94.7500 Du        
  18027 ****       127.0000 137.5000  95.0000 Du        
  18028 ****       127.0000 137.5000  95.2500 Du        
  18029 ****       127.0000 137.7500  94.2500 Du        
  18030 ****       127.0000 137.7500  94.5000 Du        
  18031 ****       127.0000 137.7500  94.7500 Du        
  18032 ****       127.0000 137.7500  95.0000 Du        
  18033 ****       127.0000 137.7500  95.2500 Du        
  18034 ****       127.0000 137.7500  95.5000 Du        
  18035 ****       127.0000 137.7500  95.7500 Du        
  18036 ****       127.0000 138.0000  94.0000 Du        
  18037 ****       127.0000 138.0000  94.2500 Du        
  18038 ****       127.0000 138.0000  94.5000 Du        
  18039 ****       127.0000 138.0000  94.7500 Du        
  18040 ****       127.0000 138.0000  95.0000 Du        
  18041 ****       127.0000 138.0000  95.2500 Du        
  18042 ****       127.0000 138.0000  95.5000 Du        
  18043 ****       127.0000 138.0000  95.7500 Du        
  18044 ****       127.0000 138.0000  96.0000 Du        
  18045 ****       127.0000 138.0000  96.2500 Du        
  18046 ****       127.0000 138.0000  96.5000 Du        
  18047 ****       127.0000 138.0000  96.7500 Du        
  18048 ****       127.0000 138.2500  93.7500 Du        
  18049 ****       127.0000 138.2500  94.0000 Du        
  18050 ****       127.0000 138.2500  94.2500 Du        
  18051 ****       127.0000 138.2500  94.5000 Du        
  18052 ****       127.0000 138.2500  94.7500 Du        
  18053 ****       127.0000 138.2500  95.0000 Du        
  18054 ****       127.0000 138.2500  95.2500 Du        
  18055 ****       127.0000 138.2500  95.5000 Du        
  18056 ****       127.0000 138.2500  95.7500 Du        
  18057 ****       127.0000 138.2500  96.0000 Du        
  18058 ****       127.0000 138.2500  96.2500 Du        
  18059 ****       127.0000 138.2500  96.5000 Du        
  18060 ****       127.0000 138.2500  96.7500 Du        
  18061 ****       127.0000 138.2500  97.0000 Du        
  18062 ****       127.0000 138.5000  94.0000 Du        
  18063 ****       127.0000 138.5000  94.2500 Du        
  18064 ****       127.0000 138.5000  94.5000 Du        
  18065 ****       127.0000 138.5000  94.7500 Du        
  18066 ****       127.0000 138.5000  95.0000 Du        
  18067 ****       127.0000 138.5000  95.2500 Du        
  18068 ****       127.0000 138.5000  95.5000 Du        
  18069 ****       127.0000 138.5000  95.7500 Du        
  18070 ****       127.0000 138.5000  96.0000 Du        
  18071 ****       127.0000 138.5000  96.2500 Du        
  18072 ****       127.0000 138.5000  96.5000 Du        
  18073 ****       127.0000 138.5000  96.7500 Du        
  18074 ****       127.0000 138.5000  97.0000 Du        
  18075 ****       127.0000 138.7500  94.0000 Du        
  18076 ****       127.0000 138.7500  94.2500 Du        
  18077 ****       127.0000 138.7500  94.7500 Du        
  18078 ****       127.0000 138.7500  95.0000 Du        
  18079 ****       127.0000 138.7500  95.2500 Du        
  18080 ****       127.0000 138.7500  95.5000 Du        
  18081 ****       127.0000 138.7500  95.7500 Du        
  18082 ****       127.0000 138.7500  96.0000 Du        
  18083 ****       127.0000 138.7500  96.2500 Du        
  18084 ****       127.0000 138.7500  96.5000 Du        
  18085 ****       127.0000 138.7500  96.7500 Du        
  18086 ****       127.0000 138.7500  97.0000 Du        
  18087 ****       127.0000 138.7500  97.2500 Du        
  18088 ****       127.0000 139.0000  95.7500 Du        
  18089 ****       127.0000 139.0000  96.0000 Du        
  18090 ****       127.0000 139.0000  96.2500 Du        
  18091 ****       127.0000 139.0000  96.5000 Du        
  18092 ****       127.0000 139.0000  96.7500 Du        
  18093 ****       127.0000 139.0000  97.0000 Du        
  18094 ****       127.0000 139.0000  97.2500 Du        
  18095 ****       127.0000 139.2500  96.7500 Du        
  18096 ****       127.0000 139.2500  97.0000 Du        
  18097 ****       127.0000 139.2500  97.2500 Du        
  18098 ****       127.0000 139.2500  97.5000 Du        
  18099 ****       127.0000 139.5000  97.0000 Du        
  18100 ****       127.0000 139.5000  97.2500 Du        
  18101 ****       127.0000 139.5000  97.5000 Du        
  18102 ****       127.0000 139.7500  90.5000 Du        
  18103 ****       127.0000 139.7500  90.7500 Du        
  18104 ****       127.0000 139.7500  97.0000 Du        
  18105 ****       127.0000 139.7500  97.2500 Du        
  18106 ****       127.0000 139.7500  97.5000 Du        
  18107 ****       127.0000 139.7500  97.7500 Du        
  18108 ****       127.0000 140.0000  90.7500 Du        
  18109 ****       127.0000 140.0000  91.0000 Du        
  18110 ****       127.0000 140.0000  97.0000 Du        
  18111 ****       127.0000 140.0000  97.2500 Du        
  18112 ****       127.0000 140.0000  97.5000 Du        
  18113 ****       127.0000 140.0000  97.7500 Du        
  18114 ****       127.0000 140.0000  98.0000 Du        
  18115 ****       127.0000 140.2500  97.2500 Du        
  18116 ****       127.0000 140.2500  97.5000 Du        
  18117 ****       127.0000 140.2500  97.7500 Du        
  18118 ****       127.0000 140.2500  98.0000 Du        
  18119 ****       127.0000 140.2500  98.2500 Du        
  18120 ****       127.0000 140.5000  97.7500 Du        
  18121 ****       127.0000 140.5000  98.0000 Du        
  18122 ****       127.0000 140.7500  98.0000 Du        
  18123 ****       127.0000 143.0000  91.0000 Du        
  18124 ****       127.0000 143.0000  91.2500 Du        
  18125 ****       127.0000 143.2500  90.7500 Du        
  18126 ****       127.0000 143.2500  91.0000 Du        
  18127 ****       127.0000 143.2500  91.2500 Du        
  18128 ****       127.0000 143.2500  91.5000 Du        
  18129 ****       127.0000 143.5000  90.7500 Du        
  18130 ****       127.0000 143.5000  91.0000 Du        
  18131 ****       127.0000 143.5000  91.2500 Du        
  18132 ****       127.0000 143.5000  91.5000 Du        
  18133 ****       127.0000 143.5000  91.7500 Du        
  18134 ****       127.0000 143.5000  92.0000 Du        
  18135 ****       127.0000 143.5000  92.2500 Du        
  18136 ****       127.0000 143.5000  92.5000 Du        
  18137 ****       127.0000 143.5000  92.7500 Du        
  18138 ****       127.0000 143.5000  93.2500 Du        
  18139 ****       127.0000 143.5000  93.7500 Du        
  18140 ****       127.0000 143.5000  94.0000 Du        
  18141 ****       127.0000 143.5000  94.2500 Du        
  18142 ****       127.0000 143.7500  90.2500 Du        
  18143 ****       127.0000 143.7500  90.5000 Du        
  18144 ****       127.0000 143.7500  90.7500 Du        
  18145 ****       127.0000 143.7500  91.0000 Du        
  18146 ****       127.0000 143.7500  91.2500 Du        
  18147 ****       127.0000 143.7500  91.5000 Du        
  18148 ****       127.0000 143.7500  91.7500 Du        
  18149 ****       127.0000 143.7500  92.0000 Du        
  18150 ****       127.0000 143.7500  92.2500 Du        
  18151 ****       127.0000 143.7500  92.5000 Du        
  18152 ****       127.0000 143.7500  92.7500 Du        
  18153 ****       127.0000 143.7500  93.0000 Du        
  18154 ****       127.0000 143.7500  93.2500 Du        
  18155 ****       127.0000 143.7500  93.5000 Du        
  18156 ****       127.0000 143.7500  93.7500 Du        
  18157 ****       127.0000 143.7500  94.0000 Du        
  18158 ****       127.0000 143.7500  94.2500 Du        
  18159 ****       127.0000 144.0000  90.0000 Du        
  18160 ****       127.0000 144.0000  90.2500 Du        
  18161 ****       127.0000 144.0000  90.5000 Du        
  18162 ****       127.0000 144.0000  90.7500 Du        
  18163 ****       127.0000 144.0000  91.0000 Du        
  18164 ****       127.0000 144.0000  91.2500 Du        
  18165 ****       127.0000 144.0000  91.5000 Du        
  18166 ****       127.0000 144.0000  91.7500 Du        
  18167 ****       127.0000 144.0000  92.0000 Du        
  18168 ****       127.0000 144.0000  92.2500 Du        
  18169 ****       127.0000 144.0000  92.5000 Du        
  18170 ****       127.0000 144.0000  92.7500 Du        
  18171 ****       127.0000 144.0000  93.0000 Du        
  18172 ****       127.0000 144.0000  93.2500 Du        
  18173 ****       127.0000 144.0000  93.5000 Du        
  18174 ****       127.0000 144.0000  93.7500 Du        
  18175 ****       127.0000 144.0000  94.0000 Du        
  18176 ****       127.0000 144.2500  90.5000 Du        
  18177 ****       127.0000 144.2500  93.7500 Du        
  18178 ****       127.0000 154.5000 111.0000 Du        
  18179 ****       127.0000 154.5000 111.2500 Du        
  18180 ****       127.0000 154.5000 111.5000 Du        
  18181 ****       127.0000 154.5000 111.7500 Du        
  18182 ****       127.0000 154.7500 110.7500 Du        
  18183 ****       127.0000 154.7500 111.0000 Du        
  18184 ****       127.0000 154.7500 111.2500 Du        
  18185 ****       127.0000 154.7500 111.5000 Du        
  18186 ****       127.0000 154.7500 111.7500 Du        
  18187 ****       127.0000 154.7500 112.0000 Du        
  18188 ****       127.0000 154.7500 157.5000 Du        
  18189 ****       127.0000 154.7500 157.7500 Du        
  18190 ****       127.0000 154.7500 158.0000 Du        
  18191 ****       127.0000 154.7500 158.2500 Du        
  18192 ****       127.0000 155.0000 110.7500 Du        
  18193 ****       127.0000 155.0000 111.0000 Du        
  18194 ****       127.0000 155.0000 111.2500 Du        
  18195 ****       127.0000 155.0000 111.5000 Du        
  18196 ****       127.0000 155.0000 111.7500 Du        
  18197 ****       127.0000 155.0000 157.5000 Du        
  18198 ****       127.0000 155.0000 157.7500 Du        
  18199 ****       127.0000 155.0000 158.0000 Du        
  18200 ****       127.0000 155.0000 158.2500 Du        
  18201 ****       127.0000 155.0000 158.5000 Du        
  18202 ****       127.0000 155.2500 111.2500 Du        
  18203 ****       127.0000 155.2500 157.5000 Du        
  18204 ****       127.0000 155.2500 157.7500 Du        
  18205 ****       127.0000 155.2500 158.0000 Du        
  18206 ****       127.0000 155.2500 158.2500 Du        
  18207 ****       127.0000 155.2500 158.5000 Du        
  18208 ****       127.0000 155.5000 157.7500 Du        
  18209 ****       127.0000 155.5000 158.0000 Du        
  18210 ****       127.0000 155.5000 158.2500 Du        
  18211 ****       127.0000 155.5000 158.5000 Du        
  18212 ****       127.0000 155.5000 158.7500 Du        
  18213 ****       127.0000 155.7500 157.7500 Du        
  18214 ****       127.0000 155.7500 158.0000 Du        
  18215 ****       127.0000 155.7500 158.2500 Du        
  18216 ****       127.0000 155.7500 158.5000 Du        
  18217 ****       127.0000 155.7500 158.7500 Du        
  18218 ****       127.0000 155.7500 159.0000 Du        
  18219 ****       127.0000 156.0000 157.7500 Du        
  18220 ****       127.0000 156.0000 158.0000 Du        
  18221 ****       127.0000 156.0000 158.2500 Du        
  18222 ****       127.0000 156.0000 158.5000 Du        
  18223 ****       127.0000 156.0000 158.7500 Du        
  18224 ****       127.0000 156.0000 159.0000 Du        
  18225 ****       127.0000 156.2500 157.7500 Du        
  18226 ****       127.0000 156.2500 158.0000 Du        
  18227 ****       127.0000 156.2500 158.2500 Du        
  18228 ****       127.0000 156.2500 158.5000 Du        
  18229 ****       127.0000 156.2500 158.7500 Du        
  18230 ****       127.0000 156.2500 159.0000 Du        
  18231 ****       127.0000 156.2500 159.2500 Du        
  18232 ****       127.0000 156.5000 158.0000 Du        
  18233 ****       127.0000 156.5000 158.2500 Du        
  18234 ****       127.0000 156.5000 158.5000 Du        
  18235 ****       127.0000 156.5000 158.7500 Du        
  18236 ****       127.0000 156.5000 159.0000 Du        
  18237 ****       127.0000 156.5000 159.2500 Du        
  18238 ****       127.0000 156.7500 158.0000 Du        
  18239 ****       127.0000 156.7500 158.2500 Du        
  18240 ****       127.0000 156.7500 158.5000 Du        
  18241 ****       127.0000 156.7500 158.7500 Du        
  18242 ****       127.0000 156.7500 159.0000 Du        
  18243 ****       127.0000 156.7500 159.2500 Du        
  18244 ****       127.2500 121.0000 156.0000 Du        
  18245 ****       127.2500 121.0000 156.2500 Du        
  18246 ****       127.2500 121.0000 156.5000 Du        
  18247 ****       127.2500 121.0000 156.7500 Du        
  18248 ****       127.2500 121.0000 164.7500 Du        
  18249 ****       127.2500 121.0000 165.0000 Du        
  18250 ****       127.2500 121.2500 156.0000 Du        
  18251 ****       127.2500 121.2500 156.2500 Du        
  18252 ****       127.2500 121.2500 156.5000 Du        
  18253 ****       127.2500 121.2500 156.7500 Du        
  18254 ****       127.2500 121.2500 164.7500 Du        
  18255 ****       127.2500 121.2500 165.0000 Du        
  18256 ****       127.2500 121.5000 155.7500 Du        
  18257 ****       127.2500 121.5000 156.0000 Du        
  18258 ****       127.2500 121.5000 156.2500 Du        
  18259 ****       127.2500 121.5000 156.5000 Du        
  18260 ****       127.2500 121.5000 156.7500 Du        
  18261 ****       127.2500 121.5000 157.0000 Du        
  18262 ****       127.2500 121.5000 164.7500 Du        
  18263 ****       127.2500 121.5000 165.0000 Du        
  18264 ****       127.2500 121.7500 155.7500 Du        
  18265 ****       127.2500 121.7500 156.0000 Du        
  18266 ****       127.2500 121.7500 156.2500 Du        
  18267 ****       127.2500 121.7500 156.5000 Du        
  18268 ****       127.2500 121.7500 156.7500 Du        
  18269 ****       127.2500 121.7500 157.0000 Du        
  18270 ****       127.2500 121.7500 164.5000 Du        
  18271 ****       127.2500 121.7500 164.7500 Du        
  18272 ****       127.2500 121.7500 165.0000 Du        
  18273 ****       127.2500 122.0000 155.7500 Du        
  18274 ****       127.2500 122.0000 156.0000 Du        
  18275 ****       127.2500 122.0000 156.2500 Du        
  18276 ****       127.2500 122.0000 156.5000 Du        
  18277 ****       127.2500 122.0000 156.7500 Du        
  18278 ****       127.2500 122.0000 157.0000 Du        
  18279 ****       127.2500 122.0000 164.5000 Du        
  18280 ****       127.2500 122.0000 164.7500 Du        
  18281 ****       127.2500 122.2500 156.2500 Du        
  18282 ****       127.2500 122.2500 156.5000 Du        
  18283 ****       127.2500 122.2500 156.7500 Du        
  18284 ****       127.2500 122.2500 157.0000 Du        
  18285 ****       127.2500 122.2500 157.2500 Du        
  18286 ****       127.2500 122.5000 104.5000 Du        
  18287 ****       127.2500 122.5000 104.7500 Du        
  18288 ****       127.2500 122.5000 105.0000 Du        
  18289 ****       127.2500 122.7500 104.0000 Du        
  18290 ****       127.2500 122.7500 104.2500 Du        
  18291 ****       127.2500 122.7500 104.5000 Du        
  18292 ****       127.2500 122.7500 104.7500 Du        
  18293 ****       127.2500 122.7500 105.0000 Du        
  18294 ****       127.2500 123.0000 104.0000 Du        
  18295 ****       127.2500 123.0000 104.2500 Du        
  18296 ****       127.2500 123.0000 104.5000 Du        
  18297 ****       127.2500 123.0000 104.7500 Du        
  18298 ****       127.2500 129.2500 163.7500 Du        
  18299 ****       127.2500 129.5000 163.7500 Du        
  18300 ****       127.2500 129.5000 164.0000 Du        
  18301 ****       127.2500 129.7500 163.5000 Du        
  18302 ****       127.2500 129.7500 163.7500 Du        
  18303 ****       127.2500 129.7500 164.0000 Du        
  18304 ****       127.2500 130.0000 163.5000 Du        
  18305 ****       127.2500 130.0000 163.7500 Du        
  18306 ****       127.2500 130.0000 164.0000 Du        
  18307 ****       127.2500 130.2500 163.7500 Du        
  18308 ****       127.2500 130.2500 164.0000 Du        
  18309 ****       127.2500 132.0000 160.2500 Du        
  18310 ****       127.2500 132.0000 160.5000 Du        
  18311 ****       127.2500 132.0000 160.7500 Du        
  18312 ****       127.2500 132.0000 161.0000 Du        
  18313 ****       127.2500 132.2500 159.5000 Du        
  18314 ****       127.2500 132.2500 159.7500 Du        
  18315 ****       127.2500 132.2500 160.0000 Du        
  18316 ****       127.2500 132.2500 160.2500 Du        
  18317 ****       127.2500 132.2500 160.5000 Du        
  18318 ****       127.2500 132.2500 160.7500 Du        
  18319 ****       127.2500 132.2500 161.0000 Du        
  18320 ****       127.2500 132.5000 158.7500 Du        
  18321 ****       127.2500 132.5000 159.0000 Du        
  18322 ****       127.2500 132.5000 159.2500 Du        
  18323 ****       127.2500 132.5000 159.5000 Du        
  18324 ****       127.2500 132.5000 159.7500 Du        
  18325 ****       127.2500 132.5000 160.0000 Du        
  18326 ****       127.2500 132.5000 160.2500 Du        
  18327 ****       127.2500 132.5000 160.5000 Du        
  18328 ****       127.2500 132.5000 160.7500 Du        
  18329 ****       127.2500 132.5000 161.0000 Du        
  18330 ****       127.2500 132.5000 165.7500 Du        
  18331 ****       127.2500 132.5000 166.0000 Du        
  18332 ****       127.2500 132.7500 158.5000 Du        
  18333 ****       127.2500 132.7500 158.7500 Du        
  18334 ****       127.2500 132.7500 159.0000 Du        
  18335 ****       127.2500 132.7500 159.2500 Du        
  18336 ****       127.2500 132.7500 159.5000 Du        
  18337 ****       127.2500 132.7500 159.7500 Du        
  18338 ****       127.2500 132.7500 160.0000 Du        
  18339 ****       127.2500 132.7500 160.2500 Du        
  18340 ****       127.2500 132.7500 160.5000 Du        
  18341 ****       127.2500 132.7500 160.7500 Du        
  18342 ****       127.2500 132.7500 161.0000 Du        
  18343 ****       127.2500 132.7500 165.5000 Du        
  18344 ****       127.2500 132.7500 165.7500 Du        
  18345 ****       127.2500 132.7500 166.0000 Du        
  18346 ****       127.2500 133.0000 158.0000 Du        
  18347 ****       127.2500 133.0000 158.2500 Du        
  18348 ****       127.2500 133.0000 158.5000 Du        
  18349 ****       127.2500 133.0000 158.7500 Du        
  18350 ****       127.2500 133.0000 159.0000 Du        
  18351 ****       127.2500 133.0000 159.2500 Du        
  18352 ****       127.2500 133.0000 159.5000 Du        
  18353 ****       127.2500 133.0000 159.7500 Du        
  18354 ****       127.2500 133.0000 160.0000 Du        
  18355 ****       127.2500 133.0000 160.2500 Du        
  18356 ****       127.2500 133.0000 160.5000 Du        
  18357 ****       127.2500 133.0000 160.7500 Du        
  18358 ****       127.2500 133.0000 161.0000 Du        
  18359 ****       127.2500 133.0000 165.2500 Du        
  18360 ****       127.2500 133.0000 165.5000 Du        
  18361 ****       127.2500 133.0000 165.7500 Du        
  18362 ****       127.2500 133.2500 158.0000 Du        
  18363 ****       127.2500 133.2500 158.2500 Du        
  18364 ****       127.2500 133.2500 158.5000 Du        
  18365 ****       127.2500 133.2500 158.7500 Du        
  18366 ****       127.2500 133.2500 159.0000 Du        
  18367 ****       127.2500 133.2500 159.2500 Du        
  18368 ****       127.2500 133.2500 159.5000 Du        
  18369 ****       127.2500 133.2500 159.7500 Du        
  18370 ****       127.2500 133.2500 160.0000 Du        
  18371 ****       127.2500 133.2500 160.2500 Du        
  18372 ****       127.2500 133.2500 160.5000 Du        
  18373 ****       127.2500 133.2500 160.7500 Du        
  18374 ****       127.2500 133.2500 161.0000 Du        
  18375 ****       127.2500 133.2500 165.2500 Du        
  18376 ****       127.2500 133.2500 165.5000 Du        
  18377 ****       127.2500 133.2500 165.7500 Du        
  18378 ****       127.2500 133.5000 157.7500 Du        
  18379 ****       127.2500 133.5000 158.0000 Du        
  18380 ****       127.2500 133.5000 158.2500 Du        
  18381 ****       127.2500 133.5000 158.5000 Du        
  18382 ****       127.2500 133.5000 158.7500 Du        
  18383 ****       127.2500 133.5000 159.0000 Du        
  18384 ****       127.2500 133.5000 159.2500 Du        
  18385 ****       127.2500 133.5000 159.5000 Du        
  18386 ****       127.2500 133.5000 159.7500 Du        
  18387 ****       127.2500 133.5000 160.0000 Du        
  18388 ****       127.2500 133.5000 160.2500 Du        
  18389 ****       127.2500 133.5000 160.5000 Du        
  18390 ****       127.2500 133.5000 160.7500 Du        
  18391 ****       127.2500 133.5000 161.0000 Du        
  18392 ****       127.2500 133.5000 165.0000 Du        
  18393 ****       127.2500 133.5000 165.2500 Du        
  18394 ****       127.2500 133.5000 165.5000 Du        
  18395 ****       127.2500 133.5000 165.7500 Du        
  18396 ****       127.2500 133.7500 157.5000 Du        
  18397 ****       127.2500 133.7500 157.7500 Du        
  18398 ****       127.2500 133.7500 158.0000 Du        
  18399 ****       127.2500 133.7500 158.2500 Du        
  18400 ****       127.2500 133.7500 158.5000 Du        
  18401 ****       127.2500 133.7500 158.7500 Du        
  18402 ****       127.2500 133.7500 159.0000 Du        
  18403 ****       127.2500 133.7500 159.2500 Du        
  18404 ****       127.2500 133.7500 159.5000 Du        
  18405 ****       127.2500 133.7500 159.7500 Du        
  18406 ****       127.2500 133.7500 160.0000 Du        
  18407 ****       127.2500 133.7500 160.2500 Du        
  18408 ****       127.2500 133.7500 160.5000 Du        
  18409 ****       127.2500 133.7500 160.7500 Du        
  18410 ****       127.2500 133.7500 161.0000 Du        
  18411 ****       127.2500 133.7500 165.0000 Du        
  18412 ****       127.2500 133.7500 165.2500 Du        
  18413 ****       127.2500 133.7500 165.5000 Du        
  18414 ****       127.2500 134.0000 157.0000 Du        
  18415 ****       127.2500 134.0000 157.2500 Du        
  18416 ****       127.2500 134.0000 157.5000 Du        
  18417 ****       127.2500 134.0000 157.7500 Du        
  18418 ****       127.2500 134.0000 158.0000 Du        
  18419 ****       127.2500 134.0000 158.2500 Du        
  18420 ****       127.2500 134.0000 158.5000 Du        
  18421 ****       127.2500 134.0000 158.7500 Du        
  18422 ****       127.2500 134.0000 159.0000 Du        
  18423 ****       127.2500 134.0000 159.2500 Du        
  18424 ****       127.2500 134.0000 159.5000 Du        
  18425 ****       127.2500 134.0000 159.7500 Du        
  18426 ****       127.2500 134.0000 160.0000 Du        
  18427 ****       127.2500 134.0000 160.2500 Du        
  18428 ****       127.2500 134.0000 160.5000 Du        
  18429 ****       127.2500 134.0000 160.7500 Du        
  18430 ****       127.2500 134.2500 157.0000 Du        
  18431 ****       127.2500 134.2500 157.2500 Du        
  18432 ****       127.2500 134.2500 157.5000 Du        
  18433 ****       127.2500 134.2500 157.7500 Du        
  18434 ****       127.2500 134.2500 158.0000 Du        
  18435 ****       127.2500 134.2500 158.2500 Du        
  18436 ****       127.2500 134.2500 158.5000 Du        
  18437 ****       127.2500 134.2500 158.7500 Du        
  18438 ****       127.2500 134.2500 159.0000 Du        
  18439 ****       127.2500 134.2500 159.2500 Du        
  18440 ****       127.2500 134.2500 159.5000 Du        
  18441 ****       127.2500 134.2500 159.7500 Du        
  18442 ****       127.2500 134.5000 157.0000 Du        
  18443 ****       127.2500 134.5000 157.2500 Du        
  18444 ****       127.2500 134.5000 157.5000 Du        
  18445 ****       127.2500 134.5000 157.7500 Du        
  18446 ****       127.2500 134.5000 158.0000 Du        
  18447 ****       127.2500 134.5000 158.2500 Du        
  18448 ****       127.2500 134.5000 158.5000 Du        
  18449 ****       127.2500 134.5000 158.7500 Du        
  18450 ****       127.2500 134.5000 159.0000 Du        
  18451 ****       127.2500 134.7500 157.0000 Du        
  18452 ****       127.2500 134.7500 157.2500 Du        
  18453 ****       127.2500 134.7500 157.5000 Du        
  18454 ****       127.2500 134.7500 157.7500 Du        
  18455 ****       127.2500 134.7500 158.0000 Du        
  18456 ****       127.2500 134.7500 158.2500 Du        
  18457 ****       127.2500 134.7500 158.5000 Du        
  18458 ****       127.2500 135.0000 157.2500 Du        
  18459 ****       127.2500 135.0000 157.5000 Du        
  18460 ****       127.2500 135.0000 157.7500 Du        
  18461 ****       127.2500 135.0000 158.0000 Du        
  18462 ****       127.2500 137.7500  94.5000 Du        
  18463 ****       127.2500 137.7500  94.7500 Du        
  18464 ****       127.2500 137.7500  95.0000 Du        
  18465 ****       127.2500 138.0000  94.2500 Du        
  18466 ****       127.2500 138.0000  94.5000 Du        
  18467 ****       127.2500 138.0000  94.7500 Du        
  18468 ****       127.2500 138.0000  95.0000 Du        
  18469 ****       127.2500 138.0000  95.2500 Du        
  18470 ****       127.2500 138.0000  95.5000 Du        
  18471 ****       127.2500 138.2500  94.0000 Du        
  18472 ****       127.2500 138.2500  94.2500 Du        
  18473 ****       127.2500 138.2500  94.5000 Du        
  18474 ****       127.2500 138.2500  94.7500 Du        
  18475 ****       127.2500 138.2500  95.0000 Du        
  18476 ****       127.2500 138.2500  95.2500 Du        
  18477 ****       127.2500 138.2500  95.5000 Du        
  18478 ****       127.2500 138.2500  95.7500 Du        
  18479 ****       127.2500 138.2500  96.0000 Du        
  18480 ****       127.2500 138.2500  96.2500 Du        
  18481 ****       127.2500 138.2500  96.5000 Du        
  18482 ****       127.2500 138.2500  96.7500 Du        
  18483 ****       127.2500 138.2500  97.0000 Du        
  18484 ****       127.2500 138.5000  94.7500 Du        
  18485 ****       127.2500 138.5000  95.0000 Du        
  18486 ****       127.2500 138.5000  95.2500 Du        
  18487 ****       127.2500 138.5000  95.5000 Du        
  18488 ****       127.2500 138.5000  95.7500 Du        
  18489 ****       127.2500 138.5000  96.0000 Du        
  18490 ****       127.2500 138.5000  96.2500 Du        
  18491 ****       127.2500 138.5000  96.5000 Du        
  18492 ****       127.2500 138.5000  96.7500 Du        
  18493 ****       127.2500 138.5000  97.0000 Du        
  18494 ****       127.2500 138.7500  95.0000 Du        
  18495 ****       127.2500 138.7500  96.0000 Du        
  18496 ****       127.2500 138.7500  96.2500 Du        
  18497 ****       127.2500 138.7500  96.5000 Du        
  18498 ****       127.2500 138.7500  96.7500 Du        
  18499 ****       127.2500 138.7500  97.0000 Du        
  18500 ****       127.2500 138.7500  97.2500 Du        
  18501 ****       127.2500 139.0000  96.0000 Du        
  18502 ****       127.2500 139.0000  96.2500 Du        
  18503 ****       127.2500 139.0000  96.5000 Du        
  18504 ****       127.2500 139.0000  96.7500 Du        
  18505 ****       127.2500 139.0000  97.0000 Du        
  18506 ****       127.2500 139.0000  97.2500 Du        
  18507 ****       127.2500 139.0000  97.5000 Du        
  18508 ****       127.2500 139.2500  96.7500 Du        
  18509 ****       127.2500 139.2500  97.0000 Du        
  18510 ****       127.2500 139.2500  97.2500 Du        
  18511 ****       127.2500 139.2500  97.5000 Du        
  18512 ****       127.2500 139.5000  97.2500 Du        
  18513 ****       127.2500 139.5000  97.5000 Du        
  18514 ****       127.2500 139.7500  97.5000 Du        
  18515 ****       127.2500 139.7500  97.7500 Du        
  18516 ****       127.2500 140.0000  97.5000 Du        
  18517 ****       127.2500 140.0000  97.7500 Du        
  18518 ****       127.2500 140.2500  97.5000 Du        
  18519 ****       127.2500 140.2500  97.7500 Du        
  18520 ****       127.2500 140.2500  98.0000 Du        
  18521 ****       127.2500 143.0000  91.2500 Du        
  18522 ****       127.2500 143.2500  91.0000 Du        
  18523 ****       127.2500 143.2500  91.2500 Du        
  18524 ****       127.2500 143.2500  91.5000 Du        
  18525 ****       127.2500 143.2500  91.7500 Du        
  18526 ****       127.2500 143.2500  92.0000 Du        
  18527 ****       127.2500 143.5000  90.0000 Du        
  18528 ****       127.2500 143.5000  90.2500 Du        
  18529 ****       127.2500 143.5000  90.5000 Du        
  18530 ****       127.2500 143.5000  90.7500 Du        
  18531 ****       127.2500 143.5000  91.0000 Du        
  18532 ****       127.2500 143.5000  91.2500 Du        
  18533 ****       127.2500 143.5000  91.5000 Du        
  18534 ****       127.2500 143.5000  91.7500 Du        
  18535 ****       127.2500 143.5000  92.0000 Du        
  18536 ****       127.2500 143.5000  92.2500 Du        
  18537 ****       127.2500 143.5000  92.5000 Du        
  18538 ****       127.2500 143.5000  92.7500 Du        
  18539 ****       127.2500 143.5000  93.0000 Du        
  18540 ****       127.2500 143.5000  93.2500 Du        
  18541 ****       127.2500 143.5000  93.5000 Du        
  18542 ****       127.2500 143.5000  93.7500 Du        
  18543 ****       127.2500 143.5000  94.0000 Du        
  18544 ****       127.2500 143.5000  94.2500 Du        
  18545 ****       127.2500 143.5000  94.5000 Du        
  18546 ****       127.2500 143.5000  94.7500 Du        
  18547 ****       127.2500 143.7500  89.5000 Du        
  18548 ****       127.2500 143.7500  89.7500 Du        
  18549 ****       127.2500 143.7500  90.0000 Du        
  18550 ****       127.2500 143.7500  90.2500 Du        
  18551 ****       127.2500 143.7500  90.5000 Du        
  18552 ****       127.2500 143.7500  90.7500 Du        
  18553 ****       127.2500 143.7500  91.0000 Du        
  18554 ****       127.2500 143.7500  91.2500 Du        
  18555 ****       127.2500 143.7500  91.5000 Du        
  18556 ****       127.2500 143.7500  91.7500 Du        
  18557 ****       127.2500 143.7500  92.0000 Du        
  18558 ****       127.2500 143.7500  92.2500 Du        
  18559 ****       127.2500 143.7500  92.5000 Du        
  18560 ****       127.2500 143.7500  92.7500 Du        
  18561 ****       127.2500 143.7500  93.0000 Du        
  18562 ****       127.2500 143.7500  93.2500 Du        
  18563 ****       127.2500 143.7500  93.5000 Du        
  18564 ****       127.2500 143.7500  93.7500 Du        
  18565 ****       127.2500 143.7500  94.0000 Du        
  18566 ****       127.2500 143.7500  94.2500 Du        
  18567 ****       127.2500 143.7500  94.5000 Du        
  18568 ****       127.2500 144.0000  89.7500 Du        
  18569 ****       127.2500 144.0000  90.0000 Du        
  18570 ****       127.2500 144.0000  90.2500 Du        
  18571 ****       127.2500 144.0000  90.5000 Du        
  18572 ****       127.2500 144.0000  90.7500 Du        
  18573 ****       127.2500 144.0000  91.0000 Du        
  18574 ****       127.2500 144.0000  91.2500 Du        
  18575 ****       127.2500 144.0000  91.5000 Du        
  18576 ****       127.2500 144.0000  91.7500 Du        
  18577 ****       127.2500 144.0000  92.0000 Du        
  18578 ****       127.2500 144.0000  92.2500 Du        
  18579 ****       127.2500 144.0000  92.5000 Du        
  18580 ****       127.2500 144.0000  92.7500 Du        
  18581 ****       127.2500 144.0000  93.0000 Du        
  18582 ****       127.2500 144.0000  93.2500 Du        
  18583 ****       127.2500 144.0000  93.5000 Du        
  18584 ****       127.2500 144.0000  93.7500 Du        
  18585 ****       127.2500 144.0000  94.0000 Du        
  18586 ****       127.2500 144.0000  94.2500 Du        
  18587 ****       127.2500 144.0000 101.7500 Du        
  18588 ****       127.2500 144.0000 102.0000 Du        
  18589 ****       127.2500 144.2500  90.0000 Du        
  18590 ****       127.2500 144.2500  90.2500 Du        
  18591 ****       127.2500 144.2500  90.5000 Du        
  18592 ****       127.2500 144.2500  90.7500 Du        
  18593 ****       127.2500 144.2500  91.0000 Du        
  18594 ****       127.2500 144.2500  92.7500 Du        
  18595 ****       127.2500 144.2500  93.0000 Du        
  18596 ****       127.2500 144.2500  93.2500 Du        
  18597 ****       127.2500 144.2500  93.5000 Du        
  18598 ****       127.2500 144.2500  93.7500 Du        
  18599 ****       127.2500 144.2500  94.0000 Du        
  18600 ****       127.2500 144.2500 101.7500 Du        
  18601 ****       127.2500 144.2500 102.0000 Du        
  18602 ****       127.2500 150.0000 147.5000 Du        
  18603 ****       127.2500 154.5000 110.7500 Du        
  18604 ****       127.2500 154.5000 111.0000 Du        
  18605 ****       127.2500 154.5000 111.2500 Du        
  18606 ****       127.2500 154.7500 110.7500 Du        
  18607 ****       127.2500 154.7500 111.0000 Du        
  18608 ****       127.2500 154.7500 111.2500 Du        
  18609 ****       127.2500 154.7500 111.5000 Du        
  18610 ****       127.2500 154.7500 111.7500 Du        
  18611 ****       127.2500 154.7500 112.0000 Du        
  18612 ****       127.2500 155.0000 110.7500 Du        
  18613 ****       127.2500 155.0000 111.0000 Du        
  18614 ****       127.2500 155.0000 111.2500 Du        
  18615 ****       127.2500 155.0000 111.5000 Du        
  18616 ****       127.2500 155.0000 111.7500 Du        
  18617 ****       127.2500 155.0000 112.0000 Du        
  18618 ****       127.2500 155.0000 157.7500 Du        
  18619 ****       127.2500 155.0000 158.0000 Du        
  18620 ****       127.2500 155.2500 111.2500 Du        
  18621 ****       127.2500 155.2500 157.7500 Du        
  18622 ****       127.2500 155.2500 158.0000 Du        
  18623 ****       127.2500 155.5000 157.7500 Du        
  18624 ****       127.2500 155.5000 158.0000 Du        
  18625 ****       127.2500 155.5000 158.2500 Du        
  18626 ****       127.2500 155.7500 157.7500 Du        
  18627 ****       127.2500 155.7500 158.0000 Du        
  18628 ****       127.2500 155.7500 158.2500 Du        
  18629 ****       127.2500 155.7500 158.5000 Du        
  18630 ****       127.2500 156.0000 157.7500 Du        
  18631 ****       127.2500 156.0000 158.0000 Du        
  18632 ****       127.2500 156.0000 158.2500 Du        
  18633 ****       127.2500 156.0000 158.5000 Du        
  18634 ****       127.2500 156.0000 158.7500 Du        
  18635 ****       127.2500 156.2500 157.7500 Du        
  18636 ****       127.2500 156.2500 158.0000 Du        
  18637 ****       127.2500 156.2500 158.2500 Du        
  18638 ****       127.2500 156.2500 158.5000 Du        
  18639 ****       127.2500 156.2500 158.7500 Du        
  18640 ****       127.2500 156.2500 159.0000 Du        
  18641 ****       127.2500 156.5000 157.7500 Du        
  18642 ****       127.2500 156.5000 158.0000 Du        
  18643 ****       127.2500 156.5000 158.2500 Du        
  18644 ****       127.2500 156.5000 158.5000 Du        
  18645 ****       127.2500 156.5000 158.7500 Du        
  18646 ****       127.2500 156.5000 159.0000 Du        
  18647 ****       127.2500 156.5000 159.2500 Du        
  18648 ****       127.2500 156.7500 157.7500 Du        
  18649 ****       127.2500 156.7500 158.0000 Du        
  18650 ****       127.2500 156.7500 158.2500 Du        
  18651 ****       127.2500 156.7500 158.5000 Du        
  18652 ****       127.2500 156.7500 158.7500 Du        
  18653 ****       127.2500 156.7500 159.0000 Du        
  18654 ****       127.2500 156.7500 159.2500 Du        
  18655 ****       127.2500 157.0000 158.0000 Du        
  18656 ****       127.2500 157.0000 158.2500 Du        
  18657 ****       127.5000 121.0000 156.0000 Du        
  18658 ****       127.5000 121.0000 156.2500 Du        
  18659 ****       127.5000 121.0000 156.5000 Du        
  18660 ****       127.5000 121.0000 165.0000 Du        
  18661 ****       127.5000 121.2500 156.0000 Du        
  18662 ****       127.5000 121.2500 156.2500 Du        
  18663 ****       127.5000 121.2500 156.5000 Du        
  18664 ****       127.5000 121.2500 164.7500 Du        
  18665 ****       127.5000 121.2500 165.0000 Du        
  18666 ****       127.5000 121.5000 155.7500 Du        
  18667 ****       127.5000 121.5000 156.0000 Du        
  18668 ****       127.5000 121.5000 156.2500 Du        
  18669 ****       127.5000 121.5000 156.5000 Du        
  18670 ****       127.5000 121.5000 156.7500 Du        
  18671 ****       127.5000 121.5000 164.7500 Du        
  18672 ****       127.5000 121.7500 155.7500 Du        
  18673 ****       127.5000 121.7500 156.0000 Du        
  18674 ****       127.5000 121.7500 156.2500 Du        
  18675 ****       127.5000 121.7500 156.5000 Du        
  18676 ****       127.5000 121.7500 156.7500 Du        
  18677 ****       127.5000 121.7500 164.5000 Du        
  18678 ****       127.5000 121.7500 164.7500 Du        
  18679 ****       127.5000 122.0000 104.5000 Du        
  18680 ****       127.5000 122.0000 104.7500 Du        
  18681 ****       127.5000 122.0000 105.0000 Du        
  18682 ****       127.5000 122.0000 156.2500 Du        
  18683 ****       127.5000 122.0000 156.5000 Du        
  18684 ****       127.5000 122.0000 156.7500 Du        
  18685 ****       127.5000 122.0000 157.0000 Du        
  18686 ****       127.5000 122.0000 164.5000 Du        
  18687 ****       127.5000 122.0000 164.7500 Du        
  18688 ****       127.5000 122.2500 104.5000 Du        
  18689 ****       127.5000 122.2500 104.7500 Du        
  18690 ****       127.5000 122.2500 105.0000 Du        
  18691 ****       127.5000 122.2500 105.2500 Du        
  18692 ****       127.5000 122.2500 156.7500 Du        
  18693 ****       127.5000 122.2500 164.5000 Du        
  18694 ****       127.5000 122.2500 164.7500 Du        
  18695 ****       127.5000 122.5000 104.0000 Du        
  18696 ****       127.5000 122.5000 104.2500 Du        
  18697 ****       127.5000 122.5000 104.5000 Du        
  18698 ****       127.5000 122.5000 104.7500 Du        
  18699 ****       127.5000 122.5000 105.0000 Du        
  18700 ****       127.5000 122.5000 105.2500 Du        
  18701 ****       127.5000 122.7500 104.0000 Du        
  18702 ****       127.5000 122.7500 104.2500 Du        
  18703 ****       127.5000 122.7500 104.5000 Du        
  18704 ****       127.5000 122.7500 104.7500 Du        
  18705 ****       127.5000 122.7500 105.0000 Du        
  18706 ****       127.5000 122.7500 105.2500 Du        
  18707 ****       127.5000 123.0000 104.0000 Du        
  18708 ****       127.5000 123.0000 104.2500 Du        
  18709 ****       127.5000 123.0000 104.5000 Du        
  18710 ****       127.5000 123.0000 104.7500 Du        
  18711 ****       127.5000 123.0000 105.0000 Du        
  18712 ****       127.5000 123.0000 105.2500 Du        
  18713 ****       127.5000 126.5000  99.0000 Du        
  18714 ****       127.5000 126.5000  99.2500 Du        
  18715 ****       127.5000 126.7500  98.7500 Du        
  18716 ****       127.5000 126.7500  99.0000 Du        
  18717 ****       127.5000 127.0000  98.7500 Du        
  18718 ****       127.5000 129.0000 163.7500 Du        
  18719 ****       127.5000 129.2500 163.7500 Du        
  18720 ****       127.5000 129.2500 164.0000 Du        
  18721 ****       127.5000 129.5000 163.7500 Du        
  18722 ****       127.5000 129.7500 163.7500 Du        
  18723 ****       127.5000 132.2500 158.7500 Du        
  18724 ****       127.5000 132.2500 159.0000 Du        
  18725 ****       127.5000 132.2500 159.2500 Du        
  18726 ****       127.5000 132.2500 159.5000 Du        
  18727 ****       127.5000 132.2500 159.7500 Du        
  18728 ****       127.5000 132.2500 160.0000 Du        
  18729 ****       127.5000 132.2500 160.2500 Du        
  18730 ****       127.5000 132.5000 158.2500 Du        
  18731 ****       127.5000 132.5000 158.5000 Du        
  18732 ****       127.5000 132.5000 158.7500 Du        
  18733 ****       127.5000 132.5000 159.0000 Du        
  18734 ****       127.5000 132.5000 159.2500 Du        
  18735 ****       127.5000 132.5000 159.5000 Du        
  18736 ****       127.5000 132.5000 159.7500 Du        
  18737 ****       127.5000 132.5000 160.0000 Du        
  18738 ****       127.5000 132.5000 160.2500 Du        
  18739 ****       127.5000 132.5000 160.5000 Du        
  18740 ****       127.5000 132.7500 158.0000 Du        
  18741 ****       127.5000 132.7500 158.2500 Du        
  18742 ****       127.5000 132.7500 158.5000 Du        
  18743 ****       127.5000 132.7500 158.7500 Du        
  18744 ****       127.5000 132.7500 159.0000 Du        
  18745 ****       127.5000 132.7500 159.2500 Du        
  18746 ****       127.5000 132.7500 159.5000 Du        
  18747 ****       127.5000 132.7500 159.7500 Du        
  18748 ****       127.5000 132.7500 160.0000 Du        
  18749 ****       127.5000 132.7500 160.2500 Du        
  18750 ****       127.5000 132.7500 160.5000 Du        
  18751 ****       127.5000 133.0000 158.0000 Du        
  18752 ****       127.5000 133.0000 158.2500 Du        
  18753 ****       127.5000 133.0000 158.5000 Du        
  18754 ****       127.5000 133.0000 158.7500 Du        
  18755 ****       127.5000 133.0000 159.0000 Du        
  18756 ****       127.5000 133.0000 159.2500 Du        
  18757 ****       127.5000 133.0000 159.5000 Du        
  18758 ****       127.5000 133.0000 159.7500 Du        
  18759 ****       127.5000 133.0000 160.0000 Du        
  18760 ****       127.5000 133.0000 160.2500 Du        
  18761 ****       127.5000 133.0000 160.5000 Du        
  18762 ****       127.5000 133.2500 157.7500 Du        
  18763 ****       127.5000 133.2500 158.0000 Du        
  18764 ****       127.5000 133.2500 158.2500 Du        
  18765 ****       127.5000 133.2500 158.5000 Du        
  18766 ****       127.5000 133.2500 158.7500 Du        
  18767 ****       127.5000 133.2500 159.0000 Du        
  18768 ****       127.5000 133.2500 159.2500 Du        
  18769 ****       127.5000 133.2500 159.5000 Du        
  18770 ****       127.5000 133.2500 159.7500 Du        
  18771 ****       127.5000 133.2500 160.0000 Du        
  18772 ****       127.5000 133.2500 160.2500 Du        
  18773 ****       127.5000 133.2500 160.5000 Du        
  18774 ****       127.5000 133.5000 157.5000 Du        
  18775 ****       127.5000 133.5000 157.7500 Du        
  18776 ****       127.5000 133.5000 158.0000 Du        
  18777 ****       127.5000 133.5000 158.2500 Du        
  18778 ****       127.5000 133.5000 158.5000 Du        
  18779 ****       127.5000 133.5000 158.7500 Du        
  18780 ****       127.5000 133.5000 159.0000 Du        
  18781 ****       127.5000 133.5000 159.2500 Du        
  18782 ****       127.5000 133.5000 159.5000 Du        
  18783 ****       127.5000 133.5000 159.7500 Du        
  18784 ****       127.5000 133.5000 160.0000 Du        
  18785 ****       127.5000 133.5000 160.2500 Du        
  18786 ****       127.5000 133.5000 160.5000 Du        
  18787 ****       127.5000 133.7500 157.2500 Du        
  18788 ****       127.5000 133.7500 157.5000 Du        
  18789 ****       127.5000 133.7500 157.7500 Du        
  18790 ****       127.5000 133.7500 158.0000 Du        
  18791 ****       127.5000 133.7500 158.2500 Du        
  18792 ****       127.5000 133.7500 158.5000 Du        
  18793 ****       127.5000 133.7500 158.7500 Du        
  18794 ****       127.5000 133.7500 159.0000 Du        
  18795 ****       127.5000 133.7500 159.2500 Du        
  18796 ****       127.5000 133.7500 159.5000 Du        
  18797 ****       127.5000 133.7500 159.7500 Du        
  18798 ****       127.5000 133.7500 160.0000 Du        
  18799 ****       127.5000 133.7500 160.2500 Du        
  18800 ****       127.5000 133.7500 160.5000 Du        
  18801 ****       127.5000 134.0000 157.0000 Du        
  18802 ****       127.5000 134.0000 157.2500 Du        
  18803 ****       127.5000 134.0000 157.5000 Du        
  18804 ****       127.5000 134.0000 157.7500 Du        
  18805 ****       127.5000 134.0000 158.0000 Du        
  18806 ****       127.5000 134.0000 158.2500 Du        
  18807 ****       127.5000 134.0000 158.5000 Du        
  18808 ****       127.5000 134.0000 158.7500 Du        
  18809 ****       127.5000 134.0000 159.0000 Du        
  18810 ****       127.5000 134.0000 159.2500 Du        
  18811 ****       127.5000 134.0000 159.5000 Du        
  18812 ****       127.5000 134.0000 159.7500 Du        
  18813 ****       127.5000 134.0000 160.0000 Du        
  18814 ****       127.5000 134.0000 160.2500 Du        
  18815 ****       127.5000 134.2500 157.0000 Du        
  18816 ****       127.5000 134.2500 157.2500 Du        
  18817 ****       127.5000 134.2500 157.5000 Du        
  18818 ****       127.5000 134.2500 157.7500 Du        
  18819 ****       127.5000 134.2500 158.0000 Du        
  18820 ****       127.5000 134.2500 158.2500 Du        
  18821 ****       127.5000 134.2500 158.5000 Du        
  18822 ****       127.5000 134.2500 158.7500 Du        
  18823 ****       127.5000 134.2500 159.0000 Du        
  18824 ****       127.5000 134.2500 159.2500 Du        
  18825 ****       127.5000 134.2500 159.5000 Du        
  18826 ****       127.5000 134.2500 159.7500 Du        
  18827 ****       127.5000 134.5000 157.0000 Du        
  18828 ****       127.5000 134.5000 157.2500 Du        
  18829 ****       127.5000 134.5000 157.5000 Du        
  18830 ****       127.5000 134.5000 157.7500 Du        
  18831 ****       127.5000 134.5000 158.0000 Du        
  18832 ****       127.5000 134.5000 158.2500 Du        
  18833 ****       127.5000 134.5000 158.5000 Du        
  18834 ****       127.5000 134.5000 158.7500 Du        
  18835 ****       127.5000 134.5000 159.0000 Du        
  18836 ****       127.5000 134.7500 157.2500 Du        
  18837 ****       127.5000 134.7500 157.5000 Du        
  18838 ****       127.5000 134.7500 157.7500 Du        
  18839 ****       127.5000 134.7500 158.0000 Du        
  18840 ****       127.5000 134.7500 158.2500 Du        
  18841 ****       127.5000 134.7500 158.5000 Du        
  18842 ****       127.5000 134.7500 158.7500 Du        
  18843 ****       127.5000 135.0000 157.2500 Du        
  18844 ****       127.5000 135.0000 157.5000 Du        
  18845 ****       127.5000 135.0000 157.7500 Du        
  18846 ****       127.5000 135.0000 158.0000 Du        
  18847 ****       127.5000 135.0000 158.2500 Du        
  18848 ****       127.5000 138.7500  96.7500 Du        
  18849 ****       127.5000 138.7500  97.0000 Du        
  18850 ****       127.5000 139.0000  96.7500 Du        
  18851 ****       127.5000 139.0000  97.0000 Du        
  18852 ****       127.5000 139.0000  97.2500 Du        
  18853 ****       127.5000 143.2500  90.7500 Du        
  18854 ****       127.5000 143.2500  91.0000 Du        
  18855 ****       127.5000 143.2500  91.2500 Du        
  18856 ****       127.5000 143.2500  91.7500 Du        
  18857 ****       127.5000 143.5000  90.5000 Du        
  18858 ****       127.5000 143.5000  90.7500 Du        
  18859 ****       127.5000 143.5000  91.0000 Du        
  18860 ****       127.5000 143.5000  91.2500 Du        
  18861 ****       127.5000 143.5000  91.5000 Du        
  18862 ****       127.5000 143.5000  91.7500 Du        
  18863 ****       127.5000 143.5000  92.0000 Du        
  18864 ****       127.5000 143.5000  92.2500 Du        
  18865 ****       127.5000 143.5000  92.5000 Du        
  18866 ****       127.5000 143.5000  92.7500 Du        
  18867 ****       127.5000 143.5000  93.0000 Du        
  18868 ****       127.5000 143.5000  93.2500 Du        
  18869 ****       127.5000 143.5000  93.5000 Du        
  18870 ****       127.5000 143.5000  93.7500 Du        
  18871 ****       127.5000 143.5000  94.0000 Du        
  18872 ****       127.5000 143.5000  94.2500 Du        
  18873 ****       127.5000 143.5000  94.5000 Du        
  18874 ****       127.5000 143.5000 101.7500 Du        
  18875 ****       127.5000 143.7500  90.0000 Du        
  18876 ****       127.5000 143.7500  90.2500 Du        
  18877 ****       127.5000 143.7500  90.5000 Du        
  18878 ****       127.5000 143.7500  90.7500 Du        
  18879 ****       127.5000 143.7500  91.0000 Du        
  18880 ****       127.5000 143.7500  91.2500 Du        
  18881 ****       127.5000 143.7500  91.5000 Du        
  18882 ****       127.5000 143.7500  91.7500 Du        
  18883 ****       127.5000 143.7500  92.0000 Du        
  18884 ****       127.5000 143.7500  92.2500 Du        
  18885 ****       127.5000 143.7500  92.5000 Du        
  18886 ****       127.5000 143.7500  92.7500 Du        
  18887 ****       127.5000 143.7500  93.0000 Du        
  18888 ****       127.5000 143.7500  93.2500 Du        
  18889 ****       127.5000 143.7500  93.5000 Du        
  18890 ****       127.5000 143.7500  93.7500 Du        
  18891 ****       127.5000 143.7500  94.0000 Du        
  18892 ****       127.5000 143.7500  94.2500 Du        
  18893 ****       127.5000 143.7500  94.5000 Du        
  18894 ****       127.5000 143.7500 101.5000 Du        
  18895 ****       127.5000 143.7500 101.7500 Du        
  18896 ****       127.5000 143.7500 102.0000 Du        
  18897 ****       127.5000 144.0000  90.0000 Du        
  18898 ****       127.5000 144.0000  90.2500 Du        
  18899 ****       127.5000 144.0000  90.5000 Du        
  18900 ****       127.5000 144.0000  90.7500 Du        
  18901 ****       127.5000 144.0000  91.0000 Du        
  18902 ****       127.5000 144.0000  91.2500 Du        
  18903 ****       127.5000 144.0000  91.5000 Du        
  18904 ****       127.5000 144.0000  91.7500 Du        
  18905 ****       127.5000 144.0000  92.0000 Du        
  18906 ****       127.5000 144.0000  92.2500 Du        
  18907 ****       127.5000 144.0000  92.5000 Du        
  18908 ****       127.5000 144.0000  92.7500 Du        
  18909 ****       127.5000 144.0000  93.0000 Du        
  18910 ****       127.5000 144.0000  93.2500 Du        
  18911 ****       127.5000 144.0000  93.5000 Du        
  18912 ****       127.5000 144.0000  93.7500 Du        
  18913 ****       127.5000 144.0000  94.0000 Du        
  18914 ****       127.5000 144.0000  94.2500 Du        
  18915 ****       127.5000 144.0000 101.5000 Du        
  18916 ****       127.5000 144.0000 101.7500 Du        
  18917 ****       127.5000 144.0000 102.0000 Du        
  18918 ****       127.5000 144.2500  90.5000 Du        
  18919 ****       127.5000 144.2500  90.7500 Du        
  18920 ****       127.5000 144.2500  91.0000 Du        
  18921 ****       127.5000 144.2500  92.5000 Du        
  18922 ****       127.5000 144.2500  92.7500 Du        
  18923 ****       127.5000 144.2500  93.0000 Du        
  18924 ****       127.5000 144.2500  93.2500 Du        
  18925 ****       127.5000 144.2500  93.5000 Du        
  18926 ****       127.5000 144.2500  93.7500 Du        
  18927 ****       127.5000 144.2500  94.0000 Du        
  18928 ****       127.5000 144.2500  94.2500 Du        
  18929 ****       127.5000 144.2500 101.5000 Du        
  18930 ****       127.5000 144.2500 101.7500 Du        
  18931 ****       127.5000 144.2500 102.0000 Du        
  18932 ****       127.5000 144.2500 102.2500 Du        
  18933 ****       127.5000 144.5000  93.7500 Du        
  18934 ****       127.5000 144.5000 101.5000 Du        
  18935 ****       127.5000 144.5000 101.7500 Du        
  18936 ****       127.5000 144.5000 102.0000 Du        
  18937 ****       127.5000 149.7500 147.5000 Du        
  18938 ****       127.5000 149.7500 147.7500 Du        
  18939 ****       127.5000 150.0000 147.5000 Du        
  18940 ****       127.5000 150.0000 147.7500 Du        
  18941 ****       127.5000 150.2500 147.5000 Du        
  18942 ****       127.5000 150.2500 147.7500 Du        
  18943 ****       127.5000 150.5000 147.5000 Du        
  18944 ****       127.5000 154.5000 111.0000 Du        
  18945 ****       127.5000 154.5000 111.2500 Du        
  18946 ****       127.5000 154.7500 110.7500 Du        
  18947 ****       127.5000 154.7500 111.0000 Du        
  18948 ****       127.5000 154.7500 111.2500 Du        
  18949 ****       127.5000 154.7500 111.5000 Du        
  18950 ****       127.5000 154.7500 111.7500 Du        
  18951 ****       127.5000 154.7500 112.0000 Du        
  18952 ****       127.5000 155.0000 110.7500 Du        
  18953 ****       127.5000 155.0000 111.0000 Du        
  18954 ****       127.5000 155.0000 111.2500 Du        
  18955 ****       127.5000 155.0000 111.5000 Du        
  18956 ****       127.5000 155.0000 111.7500 Du        
  18957 ****       127.5000 155.0000 112.0000 Du        
  18958 ****       127.5000 155.2500 111.2500 Du        
  18959 ****       127.5000 155.2500 111.5000 Du        
  18960 ****       127.5000 155.2500 111.7500 Du        
  18961 ****       127.5000 156.0000 158.0000 Du        
  18962 ****       127.5000 156.2500 157.7500 Du        
  18963 ****       127.5000 156.2500 158.0000 Du        
  18964 ****       127.5000 156.2500 158.2500 Du        
  18965 ****       127.5000 156.2500 158.5000 Du        
  18966 ****       127.5000 156.5000 157.7500 Du        
  18967 ****       127.5000 156.5000 158.0000 Du        
  18968 ****       127.5000 156.5000 158.2500 Du        
  18969 ****       127.5000 156.5000 158.5000 Du        
  18970 ****       127.5000 156.5000 158.7500 Du        
  18971 ****       127.5000 156.5000 159.0000 Du        
  18972 ****       127.5000 156.7500 157.7500 Du        
  18973 ****       127.5000 156.7500 158.0000 Du        
  18974 ****       127.5000 156.7500 158.2500 Du        
  18975 ****       127.5000 156.7500 158.5000 Du        
  18976 ****       127.5000 156.7500 158.7500 Du        
  18977 ****       127.5000 156.7500 159.0000 Du        
  18978 ****       127.5000 156.7500 159.2500 Du        
  18979 ****       127.5000 157.0000 157.7500 Du        
  18980 ****       127.5000 157.0000 158.0000 Du        
  18981 ****       127.5000 157.0000 158.2500 Du        
  18982 ****       127.5000 157.0000 158.5000 Du        
  18983 ****       127.5000 157.0000 158.7500 Du        
  18984 ****       127.5000 157.0000 159.0000 Du        
  18985 ****       127.7500 121.0000 165.0000 Du        
  18986 ****       127.7500 121.2500 156.0000 Du        
  18987 ****       127.7500 121.2500 156.2500 Du        
  18988 ****       127.7500 121.2500 164.7500 Du        
  18989 ****       127.7500 121.5000 156.0000 Du        
  18990 ****       127.7500 121.5000 156.2500 Du        
  18991 ****       127.7500 121.5000 164.7500 Du        
  18992 ****       127.7500 121.7500 104.7500 Du        
  18993 ****       127.7500 121.7500 156.0000 Du        
  18994 ****       127.7500 121.7500 156.2500 Du        
  18995 ****       127.7500 121.7500 156.5000 Du        
  18996 ****       127.7500 121.7500 164.5000 Du        
  18997 ****       127.7500 121.7500 164.7500 Du        
  18998 ****       127.7500 122.0000 104.5000 Du        
  18999 ****       127.7500 122.0000 104.7500 Du        
  19000 ****       127.7500 122.0000 105.0000 Du        
  19001 ****       127.7500 122.0000 105.2500 Du        
  19002 ****       127.7500 122.0000 164.5000 Du        
  19003 ****       127.7500 122.0000 164.7500 Du        
  19004 ****       127.7500 122.2500 104.0000 Du        
  19005 ****       127.7500 122.2500 104.2500 Du        
  19006 ****       127.7500 122.2500 104.5000 Du        
  19007 ****       127.7500 122.2500 104.7500 Du        
  19008 ****       127.7500 122.2500 105.0000 Du        
  19009 ****       127.7500 122.2500 105.2500 Du        
  19010 ****       127.7500 122.2500 164.2500 Du        
  19011 ****       127.7500 122.2500 164.5000 Du        
  19012 ****       127.7500 122.2500 164.7500 Du        
  19013 ****       127.7500 122.5000 104.0000 Du        
  19014 ****       127.7500 122.5000 104.2500 Du        
  19015 ****       127.7500 122.5000 104.5000 Du        
  19016 ****       127.7500 122.5000 104.7500 Du        
  19017 ****       127.7500 122.5000 105.0000 Du        
  19018 ****       127.7500 122.5000 105.2500 Du        
  19019 ****       127.7500 122.5000 105.5000 Du        
  19020 ****       127.7500 122.5000 164.5000 Du        
  19021 ****       127.7500 122.7500 103.7500 Du        
  19022 ****       127.7500 122.7500 104.0000 Du        
  19023 ****       127.7500 122.7500 104.2500 Du        
  19024 ****       127.7500 122.7500 104.5000 Du        
  19025 ****       127.7500 122.7500 104.7500 Du        
  19026 ****       127.7500 122.7500 105.0000 Du        
  19027 ****       127.7500 122.7500 105.2500 Du        
  19028 ****       127.7500 122.7500 105.5000 Du        
  19029 ****       127.7500 123.0000 103.7500 Du        
  19030 ****       127.7500 123.0000 104.0000 Du        
  19031 ****       127.7500 123.0000 104.2500 Du        
  19032 ****       127.7500 123.0000 104.5000 Du        
  19033 ****       127.7500 123.0000 104.7500 Du        
  19034 ****       127.7500 123.0000 105.0000 Du        
  19035 ****       127.7500 123.0000 105.2500 Du        
  19036 ****       127.7500 126.5000  98.7500 Du        
  19037 ****       127.7500 126.5000  99.0000 Du        
  19038 ****       127.7500 126.5000  99.2500 Du        
  19039 ****       127.7500 126.7500  94.2500 Du        
  19040 ****       127.7500 126.7500  94.5000 Du        
  19041 ****       127.7500 126.7500  98.2500 Du        
  19042 ****       127.7500 126.7500  98.5000 Du        
  19043 ****       127.7500 126.7500  98.7500 Du        
  19044 ****       127.7500 126.7500  99.0000 Du        
  19045 ****       127.7500 126.7500  99.2500 Du        
  19046 ****       127.7500 127.0000  94.5000 Du        
  19047 ****       127.7500 127.0000  98.2500 Du        
  19048 ****       127.7500 127.0000  98.5000 Du        
  19049 ****       127.7500 127.0000  98.7500 Du        
  19050 ****       127.7500 127.0000  99.0000 Du        
  19051 ****       127.7500 127.0000  99.2500 Du        
  19052 ****       127.7500 127.2500  98.7500 Du        
  19053 ****       127.7500 128.7500 163.7500 Du        
  19054 ****       127.7500 128.7500 164.0000 Du        
  19055 ****       127.7500 129.0000 163.7500 Du        
  19056 ****       127.7500 129.0000 164.0000 Du        
  19057 ****       127.7500 129.2500 163.7500 Du        
  19058 ****       127.7500 129.2500 164.0000 Du        
  19059 ****       127.7500 129.5000 164.0000 Du        
  19060 ****       127.7500 132.2500 158.2500 Du        
  19061 ****       127.7500 132.2500 158.5000 Du        
  19062 ****       127.7500 132.2500 158.7500 Du        
  19063 ****       127.7500 132.2500 159.0000 Du        
  19064 ****       127.7500 132.2500 159.2500 Du        
  19065 ****       127.7500 132.2500 159.5000 Du        
  19066 ****       127.7500 132.2500 159.7500 Du        
  19067 ****       127.7500 132.5000 158.0000 Du        
  19068 ****       127.7500 132.5000 158.2500 Du        
  19069 ****       127.7500 132.5000 158.5000 Du        
  19070 ****       127.7500 132.5000 158.7500 Du        
  19071 ****       127.7500 132.5000 159.0000 Du        
  19072 ****       127.7500 132.5000 159.2500 Du        
  19073 ****       127.7500 132.5000 159.5000 Du        
  19074 ****       127.7500 132.5000 159.7500 Du        
  19075 ****       127.7500 132.5000 160.0000 Du        
  19076 ****       127.7500 132.7500 157.7500 Du        
  19077 ****       127.7500 132.7500 158.0000 Du        
  19078 ****       127.7500 132.7500 158.2500 Du        
  19079 ****       127.7500 132.7500 158.5000 Du        
  19080 ****       127.7500 132.7500 158.7500 Du        
  19081 ****       127.7500 132.7500 159.0000 Du        
  19082 ****       127.7500 132.7500 159.2500 Du        
  19083 ****       127.7500 132.7500 159.5000 Du        
  19084 ****       127.7500 132.7500 159.7500 Du        
  19085 ****       127.7500 132.7500 160.0000 Du        
  19086 ****       127.7500 133.0000 157.7500 Du        
  19087 ****       127.7500 133.0000 158.0000 Du        
  19088 ****       127.7500 133.0000 158.2500 Du        
  19089 ****       127.7500 133.0000 158.5000 Du        
  19090 ****       127.7500 133.0000 158.7500 Du        
  19091 ****       127.7500 133.0000 159.0000 Du        
  19092 ****       127.7500 133.0000 159.2500 Du        
  19093 ****       127.7500 133.0000 159.5000 Du        
  19094 ****       127.7500 133.0000 159.7500 Du        
  19095 ****       127.7500 133.0000 160.0000 Du        
  19096 ****       127.7500 133.2500 157.7500 Du        
  19097 ****       127.7500 133.2500 158.0000 Du        
  19098 ****       127.7500 133.2500 158.2500 Du        
  19099 ****       127.7500 133.2500 158.5000 Du        
  19100 ****       127.7500 133.2500 158.7500 Du        
  19101 ****       127.7500 133.2500 159.0000 Du        
  19102 ****       127.7500 133.2500 159.2500 Du        
  19103 ****       127.7500 133.2500 159.5000 Du        
  19104 ****       127.7500 133.2500 159.7500 Du        
  19105 ****       127.7500 133.2500 160.0000 Du        
  19106 ****       127.7500 133.5000 157.5000 Du        
  19107 ****       127.7500 133.5000 157.7500 Du        
  19108 ****       127.7500 133.5000 158.0000 Du        
  19109 ****       127.7500 133.5000 158.2500 Du        
  19110 ****       127.7500 133.5000 158.5000 Du        
  19111 ****       127.7500 133.5000 158.7500 Du        
  19112 ****       127.7500 133.5000 159.0000 Du        
  19113 ****       127.7500 133.5000 159.2500 Du        
  19114 ****       127.7500 133.5000 159.5000 Du        
  19115 ****       127.7500 133.5000 159.7500 Du        
  19116 ****       127.7500 133.5000 160.0000 Du        
  19117 ****       127.7500 133.7500 157.0000 Du        
  19118 ****       127.7500 133.7500 157.2500 Du        
  19119 ****       127.7500 133.7500 157.5000 Du        
  19120 ****       127.7500 133.7500 157.7500 Du        
  19121 ****       127.7500 133.7500 158.0000 Du        
  19122 ****       127.7500 133.7500 158.2500 Du        
  19123 ****       127.7500 133.7500 158.5000 Du        
  19124 ****       127.7500 133.7500 158.7500 Du        
  19125 ****       127.7500 133.7500 159.0000 Du        
  19126 ****       127.7500 133.7500 159.2500 Du        
  19127 ****       127.7500 133.7500 159.5000 Du        
  19128 ****       127.7500 133.7500 159.7500 Du        
  19129 ****       127.7500 133.7500 160.0000 Du        
  19130 ****       127.7500 134.0000 157.0000 Du        
  19131 ****       127.7500 134.0000 157.2500 Du        
  19132 ****       127.7500 134.0000 157.5000 Du        
  19133 ****       127.7500 134.0000 157.7500 Du        
  19134 ****       127.7500 134.0000 158.0000 Du        
  19135 ****       127.7500 134.0000 158.2500 Du        
  19136 ****       127.7500 134.0000 158.5000 Du        
  19137 ****       127.7500 134.0000 158.7500 Du        
  19138 ****       127.7500 134.0000 159.0000 Du        
  19139 ****       127.7500 134.0000 159.2500 Du        
  19140 ****       127.7500 134.0000 159.5000 Du        
  19141 ****       127.7500 134.0000 159.7500 Du        
  19142 ****       127.7500 134.0000 160.0000 Du        
  19143 ****       127.7500 134.2500 157.0000 Du        
  19144 ****       127.7500 134.2500 157.2500 Du        
  19145 ****       127.7500 134.2500 157.5000 Du        
  19146 ****       127.7500 134.2500 157.7500 Du        
  19147 ****       127.7500 134.2500 158.0000 Du        
  19148 ****       127.7500 134.2500 158.2500 Du        
  19149 ****       127.7500 134.2500 158.5000 Du        
  19150 ****       127.7500 134.2500 158.7500 Du        
  19151 ****       127.7500 134.2500 159.0000 Du        
  19152 ****       127.7500 134.2500 159.2500 Du        
  19153 ****       127.7500 134.2500 159.5000 Du        
  19154 ****       127.7500 134.2500 159.7500 Du        
  19155 ****       127.7500 134.5000 157.0000 Du        
  19156 ****       127.7500 134.5000 157.2500 Du        
  19157 ****       127.7500 134.5000 157.5000 Du        
  19158 ****       127.7500 134.5000 157.7500 Du        
  19159 ****       127.7500 134.5000 158.0000 Du        
  19160 ****       127.7500 134.5000 158.2500 Du        
  19161 ****       127.7500 134.5000 158.5000 Du        
  19162 ****       127.7500 134.5000 158.7500 Du        
  19163 ****       127.7500 134.5000 159.0000 Du        
  19164 ****       127.7500 134.7500 157.2500 Du        
  19165 ****       127.7500 134.7500 157.5000 Du        
  19166 ****       127.7500 134.7500 157.7500 Du        
  19167 ****       127.7500 134.7500 158.0000 Du        
  19168 ****       127.7500 134.7500 158.2500 Du        
  19169 ****       127.7500 134.7500 158.5000 Du        
  19170 ****       127.7500 134.7500 158.7500 Du        
  19171 ****       127.7500 135.0000 157.5000 Du        
  19172 ****       127.7500 135.0000 157.7500 Du        
  19173 ****       127.7500 135.0000 158.0000 Du        
  19174 ****       127.7500 135.0000 158.2500 Du        
  19175 ****       127.7500 138.7500  97.0000 Du        
  19176 ****       127.7500 139.0000  96.7500 Du        
  19177 ****       127.7500 139.0000  97.0000 Du        
  19178 ****       127.7500 139.0000  97.2500 Du        
  19179 ****       127.7500 143.0000 101.2500 Du        
  19180 ****       127.7500 143.0000 101.5000 Du        
  19181 ****       127.7500 143.0000 101.7500 Du        
  19182 ****       127.7500 143.2500  93.7500 Du        
  19183 ****       127.7500 143.2500  94.0000 Du        
  19184 ****       127.7500 143.2500  94.2500 Du        
  19185 ****       127.7500 143.2500 101.2500 Du        
  19186 ****       127.7500 143.2500 101.5000 Du        
  19187 ****       127.7500 143.2500 101.7500 Du        
  19188 ****       127.7500 143.5000  90.7500 Du        
  19189 ****       127.7500 143.5000  91.0000 Du        
  19190 ****       127.7500 143.5000  91.2500 Du        
  19191 ****       127.7500 143.5000  91.5000 Du        
  19192 ****       127.7500 143.5000  91.7500 Du        
  19193 ****       127.7500 143.5000  92.0000 Du        
  19194 ****       127.7500 143.5000  92.2500 Du        
  19195 ****       127.7500 143.5000  92.5000 Du        
  19196 ****       127.7500 143.5000  92.7500 Du        
  19197 ****       127.7500 143.5000  93.0000 Du        
  19198 ****       127.7500 143.5000  93.2500 Du        
  19199 ****       127.7500 143.5000  93.5000 Du        
  19200 ****       127.7500 143.5000  93.7500 Du        
  19201 ****       127.7500 143.5000  94.0000 Du        
  19202 ****       127.7500 143.5000  94.2500 Du        
  19203 ****       127.7500 143.5000  94.5000 Du        
  19204 ****       127.7500 143.5000  94.7500 Du        
  19205 ****       127.7500 143.5000  95.0000 Du        
  19206 ****       127.7500 143.5000 101.2500 Du        
  19207 ****       127.7500 143.5000 101.5000 Du        
  19208 ****       127.7500 143.5000 101.7500 Du        
  19209 ****       127.7500 143.5000 102.0000 Du        
  19210 ****       127.7500 143.7500  90.5000 Du        
  19211 ****       127.7500 143.7500  90.7500 Du        
  19212 ****       127.7500 143.7500  91.0000 Du        
  19213 ****       127.7500 143.7500  91.2500 Du        
  19214 ****       127.7500 143.7500  91.5000 Du        
  19215 ****       127.7500 143.7500  91.7500 Du        
  19216 ****       127.7500 143.7500  92.0000 Du        
  19217 ****       127.7500 143.7500  92.2500 Du        
  19218 ****       127.7500 143.7500  92.5000 Du        
  19219 ****       127.7500 143.7500  92.7500 Du        
  19220 ****       127.7500 143.7500  93.0000 Du        
  19221 ****       127.7500 143.7500  93.2500 Du        
  19222 ****       127.7500 143.7500  93.5000 Du        
  19223 ****       127.7500 143.7500  93.7500 Du        
  19224 ****       127.7500 143.7500  94.0000 Du        
  19225 ****       127.7500 143.7500  94.2500 Du        
  19226 ****       127.7500 143.7500  94.5000 Du        
  19227 ****       127.7500 143.7500  94.7500 Du        
  19228 ****       127.7500 143.7500 101.2500 Du        
  19229 ****       127.7500 143.7500 101.5000 Du        
  19230 ****       127.7500 143.7500 101.7500 Du        
  19231 ****       127.7500 143.7500 102.0000 Du        
  19232 ****       127.7500 144.0000  90.2500 Du        
  19233 ****       127.7500 144.0000  90.5000 Du        
  19234 ****       127.7500 144.0000  90.7500 Du        
  19235 ****       127.7500 144.0000  91.0000 Du        
  19236 ****       127.7500 144.0000  91.2500 Du        
  19237 ****       127.7500 144.0000  91.5000 Du        
  19238 ****       127.7500 144.0000  91.7500 Du        
  19239 ****       127.7500 144.0000  92.0000 Du        
  19240 ****       127.7500 144.0000  92.2500 Du        
  19241 ****       127.7500 144.0000  92.5000 Du        
  19242 ****       127.7500 144.0000  92.7500 Du        
  19243 ****       127.7500 144.0000  93.0000 Du        
  19244 ****       127.7500 144.0000  93.2500 Du        
  19245 ****       127.7500 144.0000  93.5000 Du        
  19246 ****       127.7500 144.0000  93.7500 Du        
  19247 ****       127.7500 144.0000  94.0000 Du        
  19248 ****       127.7500 144.0000  94.2500 Du        
  19249 ****       127.7500 144.0000  94.5000 Du        
  19250 ****       127.7500 144.0000 101.2500 Du        
  19251 ****       127.7500 144.0000 101.5000 Du        
  19252 ****       127.7500 144.0000 101.7500 Du        
  19253 ****       127.7500 144.0000 102.0000 Du        
  19254 ****       127.7500 144.0000 102.2500 Du        
  19255 ****       127.7500 144.2500  90.5000 Du        
  19256 ****       127.7500 144.2500  90.7500 Du        
  19257 ****       127.7500 144.2500  91.0000 Du        
  19258 ****       127.7500 144.2500  91.2500 Du        
  19259 ****       127.7500 144.2500  91.5000 Du        
  19260 ****       127.7500 144.2500  92.0000 Du        
  19261 ****       127.7500 144.2500  92.2500 Du        
  19262 ****       127.7500 144.2500  92.5000 Du        
  19263 ****       127.7500 144.2500  92.7500 Du        
  19264 ****       127.7500 144.2500  93.0000 Du        
  19265 ****       127.7500 144.2500  93.2500 Du        
  19266 ****       127.7500 144.2500  93.5000 Du        
  19267 ****       127.7500 144.2500  93.7500 Du        
  19268 ****       127.7500 144.2500  94.0000 Du        
  19269 ****       127.7500 144.2500  94.2500 Du        
  19270 ****       127.7500 144.2500 101.0000 Du        
  19271 ****       127.7500 144.2500 101.2500 Du        
  19272 ****       127.7500 144.2500 101.5000 Du        
  19273 ****       127.7500 144.2500 101.7500 Du        
  19274 ****       127.7500 144.2500 102.0000 Du        
  19275 ****       127.7500 144.2500 102.2500 Du        
  19276 ****       127.7500 144.5000  90.7500 Du        
  19277 ****       127.7500 144.5000  93.0000 Du        
  19278 ****       127.7500 144.5000  93.2500 Du        
  19279 ****       127.7500 144.5000  93.5000 Du        
  19280 ****       127.7500 144.5000  93.7500 Du        
  19281 ****       127.7500 144.5000  94.0000 Du        
  19282 ****       127.7500 144.5000  94.2500 Du        
  19283 ****       127.7500 144.5000 101.0000 Du        
  19284 ****       127.7500 144.5000 101.2500 Du        
  19285 ****       127.7500 144.5000 101.5000 Du        
  19286 ****       127.7500 144.5000 101.7500 Du        
  19287 ****       127.7500 144.5000 102.0000 Du        
  19288 ****       127.7500 144.7500 101.0000 Du        
  19289 ****       127.7500 144.7500 101.2500 Du        
  19290 ****       127.7500 144.7500 101.5000 Du        
  19291 ****       127.7500 144.7500 101.7500 Du        
  19292 ****       127.7500 144.7500 102.0000 Du        
  19293 ****       127.7500 145.0000 101.0000 Du        
  19294 ****       127.7500 145.0000 101.2500 Du        
  19295 ****       127.7500 145.0000 101.5000 Du        
  19296 ****       127.7500 145.0000 101.7500 Du        
  19297 ****       127.7500 149.5000 147.5000 Du        
  19298 ****       127.7500 149.7500 147.2500 Du        
  19299 ****       127.7500 149.7500 147.5000 Du        
  19300 ****       127.7500 149.7500 147.7500 Du        
  19301 ****       127.7500 150.0000 147.2500 Du        
  19302 ****       127.7500 150.0000 147.5000 Du        
  19303 ****       127.7500 150.0000 147.7500 Du        
  19304 ****       127.7500 150.2500 147.5000 Du        
  19305 ****       127.7500 154.7500 110.7500 Du        
  19306 ****       127.7500 154.7500 111.0000 Du        
  19307 ****       127.7500 154.7500 111.2500 Du        
  19308 ****       127.7500 154.7500 111.5000 Du        
  19309 ****       127.7500 154.7500 111.7500 Du        
  19310 ****       127.7500 154.7500 112.0000 Du        
  19311 ****       127.7500 155.0000 111.0000 Du        
  19312 ****       127.7500 155.0000 111.2500 Du        
  19313 ****       127.7500 155.0000 111.5000 Du        
  19314 ****       127.7500 155.0000 111.7500 Du        
  19315 ****       127.7500 155.0000 112.0000 Du        
  19316 ****       127.7500 155.2500 111.5000 Du        
  19317 ****       127.7500 155.2500 111.7500 Du        
  19318 ****       127.7500 156.7500 157.7500 Du        
  19319 ****       127.7500 156.7500 158.0000 Du        
  19320 ****       127.7500 156.7500 158.2500 Du        
  19321 ****       127.7500 156.7500 158.5000 Du        
  19322 ****       127.7500 156.7500 158.7500 Du        
  19323 ****       127.7500 156.7500 159.0000 Du        
  19324 ****       127.7500 157.0000 157.7500 Du        
  19325 ****       127.7500 157.0000 158.0000 Du        
  19326 ****       127.7500 157.0000 158.2500 Du        
  19327 ****       127.7500 157.0000 158.5000 Du        
  19328 ****       127.7500 157.0000 158.7500 Du        
  19329 ****       127.7500 157.0000 159.0000 Du        
  19330 ****       127.7500 157.2500 158.0000 Du        
  19331 ****       127.7500 157.2500 158.2500 Du        
  19332 ****       128.0000 121.5000 164.7500 Du        
  19333 ****       128.0000 121.7500 104.7500 Du        
  19334 ****       128.0000 121.7500 105.0000 Du        
  19335 ****       128.0000 121.7500 105.2500 Du        
  19336 ****       128.0000 121.7500 164.5000 Du        
  19337 ****       128.0000 121.7500 164.7500 Du        
  19338 ****       128.0000 122.0000 104.0000 Du        
  19339 ****       128.0000 122.0000 104.2500 Du        
  19340 ****       128.0000 122.0000 104.5000 Du        
  19341 ****       128.0000 122.0000 104.7500 Du        
  19342 ****       128.0000 122.0000 105.0000 Du        
  19343 ****       128.0000 122.0000 105.2500 Du        
  19344 ****       128.0000 122.0000 164.5000 Du        
  19345 ****       128.0000 122.0000 164.7500 Du        
  19346 ****       128.0000 122.2500 104.0000 Du        
  19347 ****       128.0000 122.2500 104.2500 Du        
  19348 ****       128.0000 122.2500 104.5000 Du        
  19349 ****       128.0000 122.2500 104.7500 Du        
  19350 ****       128.0000 122.2500 105.0000 Du        
  19351 ****       128.0000 122.2500 105.2500 Du        
  19352 ****       128.0000 122.2500 105.5000 Du        
  19353 ****       128.0000 122.2500 164.2500 Du        
  19354 ****       128.0000 122.2500 164.5000 Du        
  19355 ****       128.0000 122.5000 103.7500 Du        
  19356 ****       128.0000 122.5000 104.0000 Du        
  19357 ****       128.0000 122.5000 104.2500 Du        
  19358 ****       128.0000 122.5000 104.5000 Du        
  19359 ****       128.0000 122.5000 104.7500 Du        
  19360 ****       128.0000 122.5000 105.0000 Du        
  19361 ****       128.0000 122.5000 105.2500 Du        
  19362 ****       128.0000 122.5000 105.5000 Du        
  19363 ****       128.0000 122.7500 103.7500 Du        
  19364 ****       128.0000 122.7500 104.0000 Du        
  19365 ****       128.0000 122.7500 104.2500 Du        
  19366 ****       128.0000 122.7500 104.5000 Du        
  19367 ****       128.0000 122.7500 104.7500 Du        
  19368 ****       128.0000 122.7500 105.0000 Du        
  19369 ****       128.0000 122.7500 105.2500 Du        
  19370 ****       128.0000 122.7500 105.5000 Du        
  19371 ****       128.0000 123.0000 103.7500 Du        
  19372 ****       128.0000 123.0000 104.0000 Du        
  19373 ****       128.0000 123.0000 104.2500 Du        
  19374 ****       128.0000 123.0000 104.5000 Du        
  19375 ****       128.0000 123.0000 104.7500 Du        
  19376 ****       128.0000 123.0000 105.0000 Du        
  19377 ****       128.0000 123.0000 105.2500 Du        
  19378 ****       128.0000 126.5000  94.2500 Du        
  19379 ****       128.0000 126.5000  98.2500 Du        
  19380 ****       128.0000 126.5000  98.5000 Du        
  19381 ****       128.0000 126.5000  98.7500 Du        
  19382 ****       128.0000 126.5000  99.0000 Du        
  19383 ****       128.0000 126.5000  99.2500 Du        
  19384 ****       128.0000 126.7500  94.2500 Du        
  19385 ****       128.0000 126.7500  94.5000 Du        
  19386 ****       128.0000 126.7500  94.7500 Du        
  19387 ****       128.0000 126.7500  95.0000 Du        
  19388 ****       128.0000 126.7500  97.7500 Du        
  19389 ****       128.0000 126.7500  98.0000 Du        
  19390 ****       128.0000 126.7500  98.2500 Du        
  19391 ****       128.0000 126.7500  98.5000 Du        
  19392 ****       128.0000 126.7500  98.7500 Du        
  19393 ****       128.0000 126.7500  99.0000 Du        
  19394 ****       128.0000 126.7500  99.2500 Du        
  19395 ****       128.0000 127.0000  94.2500 Du        
  19396 ****       128.0000 127.0000  94.5000 Du        
  19397 ****       128.0000 127.0000  94.7500 Du        
  19398 ****       128.0000 127.0000  95.0000 Du        
  19399 ****       128.0000 127.0000  98.0000 Du        
  19400 ****       128.0000 127.0000  98.2500 Du        
  19401 ****       128.0000 127.0000  98.5000 Du        
  19402 ****       128.0000 127.0000  98.7500 Du        
  19403 ****       128.0000 127.0000  99.0000 Du        
  19404 ****       128.0000 127.0000  99.2500 Du        
  19405 ****       128.0000 127.2500  94.2500 Du        
  19406 ****       128.0000 127.2500  94.5000 Du        
  19407 ****       128.0000 127.2500  94.7500 Du        
  19408 ****       128.0000 127.2500  98.2500 Du        
  19409 ****       128.0000 127.2500  98.5000 Du        
  19410 ****       128.0000 127.2500  98.7500 Du        
  19411 ****       128.0000 127.2500  99.0000 Du        
  19412 ****       128.0000 127.2500  99.2500 Du        
  19413 ****       128.0000 127.5000  94.2500 Du        
  19414 ****       128.0000 127.5000  94.5000 Du        
  19415 ****       128.0000 127.5000  98.7500 Du        
  19416 ****       128.0000 127.5000  99.0000 Du        
  19417 ****       128.0000 128.5000 164.0000 Du        
  19418 ****       128.0000 128.7500 163.7500 Du        
  19419 ****       128.0000 128.7500 164.0000 Du        
  19420 ****       128.0000 128.7500 164.2500 Du        
  19421 ****       128.0000 129.0000 164.0000 Du        
  19422 ****       128.0000 129.0000 164.2500 Du        
  19423 ****       128.0000 132.0000 158.0000 Du        
  19424 ****       128.0000 132.0000 158.2500 Du        
  19425 ****       128.0000 132.2500 157.7500 Du        
  19426 ****       128.0000 132.2500 158.0000 Du        
  19427 ****       128.0000 132.2500 158.2500 Du        
  19428 ****       128.0000 132.2500 158.5000 Du        
  19429 ****       128.0000 132.2500 158.7500 Du        
  19430 ****       128.0000 132.2500 159.0000 Du        
  19431 ****       128.0000 132.2500 159.2500 Du        
  19432 ****       128.0000 132.5000 157.7500 Du        
  19433 ****       128.0000 132.5000 158.0000 Du        
  19434 ****       128.0000 132.5000 158.2500 Du        
  19435 ****       128.0000 132.5000 158.5000 Du        
  19436 ****       128.0000 132.5000 158.7500 Du        
  19437 ****       128.0000 132.5000 159.0000 Du        
  19438 ****       128.0000 132.5000 159.2500 Du        
  19439 ****       128.0000 132.7500 157.5000 Du        
  19440 ****       128.0000 132.7500 157.7500 Du        
  19441 ****       128.0000 132.7500 158.0000 Du        
  19442 ****       128.0000 132.7500 158.2500 Du        
  19443 ****       128.0000 132.7500 158.5000 Du        
  19444 ****       128.0000 132.7500 158.7500 Du        
  19445 ****       128.0000 132.7500 159.0000 Du        
  19446 ****       128.0000 132.7500 159.2500 Du        
  19447 ****       128.0000 132.7500 159.5000 Du        
  19448 ****       128.0000 133.0000 157.2500 Du        
  19449 ****       128.0000 133.0000 157.5000 Du        
  19450 ****       128.0000 133.0000 157.7500 Du        
  19451 ****       128.0000 133.0000 158.0000 Du        
  19452 ****       128.0000 133.0000 158.2500 Du        
  19453 ****       128.0000 133.0000 158.5000 Du        
  19454 ****       128.0000 133.0000 158.7500 Du        
  19455 ****       128.0000 133.0000 159.0000 Du        
  19456 ****       128.0000 133.0000 159.2500 Du        
  19457 ****       128.0000 133.0000 159.5000 Du        
  19458 ****       128.0000 133.2500 157.5000 Du        
  19459 ****       128.0000 133.2500 157.7500 Du        
  19460 ****       128.0000 133.2500 158.0000 Du        
  19461 ****       128.0000 133.2500 158.2500 Du        
  19462 ****       128.0000 133.2500 158.5000 Du        
  19463 ****       128.0000 133.2500 158.7500 Du        
  19464 ****       128.0000 133.2500 159.0000 Du        
  19465 ****       128.0000 133.2500 159.2500 Du        
  19466 ****       128.0000 133.2500 159.5000 Du        
  19467 ****       128.0000 133.2500 159.7500 Du        
  19468 ****       128.0000 133.5000 157.2500 Du        
  19469 ****       128.0000 133.5000 157.5000 Du        
  19470 ****       128.0000 133.5000 157.7500 Du        
  19471 ****       128.0000 133.5000 158.0000 Du        
  19472 ****       128.0000 133.5000 158.2500 Du        
  19473 ****       128.0000 133.5000 158.5000 Du        
  19474 ****       128.0000 133.5000 158.7500 Du        
  19475 ****       128.0000 133.5000 159.0000 Du        
  19476 ****       128.0000 133.5000 159.2500 Du        
  19477 ****       128.0000 133.5000 159.5000 Du        
  19478 ****       128.0000 133.7500 157.0000 Du        
  19479 ****       128.0000 133.7500 157.2500 Du        
  19480 ****       128.0000 133.7500 157.5000 Du        
  19481 ****       128.0000 133.7500 157.7500 Du        
  19482 ****       128.0000 133.7500 158.0000 Du        
  19483 ****       128.0000 133.7500 158.2500 Du        
  19484 ****       128.0000 133.7500 158.5000 Du        
  19485 ****       128.0000 133.7500 158.7500 Du        
  19486 ****       128.0000 133.7500 159.0000 Du        
  19487 ****       128.0000 133.7500 159.2500 Du        
  19488 ****       128.0000 133.7500 159.5000 Du        
  19489 ****       128.0000 133.7500 159.7500 Du        
  19490 ****       128.0000 134.0000 157.0000 Du        
  19491 ****       128.0000 134.0000 157.2500 Du        
  19492 ****       128.0000 134.0000 157.5000 Du        
  19493 ****       128.0000 134.0000 157.7500 Du        
  19494 ****       128.0000 134.0000 158.0000 Du        
  19495 ****       128.0000 134.0000 158.2500 Du        
  19496 ****       128.0000 134.0000 158.5000 Du        
  19497 ****       128.0000 134.0000 158.7500 Du        
  19498 ****       128.0000 134.0000 159.0000 Du        
  19499 ****       128.0000 134.0000 159.2500 Du        
  19500 ****       128.0000 134.0000 159.5000 Du        
  19501 ****       128.0000 134.0000 159.7500 Du        
  19502 ****       128.0000 134.2500 157.0000 Du        
  19503 ****       128.0000 134.2500 157.2500 Du        
  19504 ****       128.0000 134.2500 157.5000 Du        
  19505 ****       128.0000 134.2500 157.7500 Du        
  19506 ****       128.0000 134.2500 158.0000 Du        
  19507 ****       128.0000 134.2500 158.2500 Du        
  19508 ****       128.0000 134.2500 158.5000 Du        
  19509 ****       128.0000 134.2500 158.7500 Du        
  19510 ****       128.0000 134.2500 159.0000 Du        
  19511 ****       128.0000 134.2500 159.2500 Du        
  19512 ****       128.0000 134.2500 159.5000 Du        
  19513 ****       128.0000 134.5000 157.2500 Du        
  19514 ****       128.0000 134.5000 157.5000 Du        
  19515 ****       128.0000 134.5000 157.7500 Du        
  19516 ****       128.0000 134.5000 158.0000 Du        
  19517 ****       128.0000 134.5000 158.2500 Du        
  19518 ****       128.0000 134.5000 158.5000 Du        
  19519 ****       128.0000 134.5000 158.7500 Du        
  19520 ****       128.0000 134.5000 159.0000 Du        
  19521 ****       128.0000 134.7500 157.5000 Du        
  19522 ****       128.0000 134.7500 157.7500 Du        
  19523 ****       128.0000 134.7500 158.0000 Du        
  19524 ****       128.0000 134.7500 158.2500 Du        
  19525 ****       128.0000 134.7500 158.5000 Du        
  19526 ****       128.0000 134.7500 158.7500 Du        
  19527 ****       128.0000 135.0000 157.5000 Du        
  19528 ****       128.0000 135.0000 157.7500 Du        
  19529 ****       128.0000 135.0000 158.0000 Du        
  19530 ****       128.0000 139.0000  97.0000 Du        
  19531 ****       128.0000 139.2500  97.5000 Du        
  19532 ****       128.0000 139.2500  97.7500 Du        
  19533 ****       128.0000 142.7500 100.7500 Du        
  19534 ****       128.0000 142.7500 101.0000 Du        
  19535 ****       128.0000 142.7500 101.2500 Du        
  19536 ****       128.0000 142.7500 101.5000 Du        
  19537 ****       128.0000 143.0000 100.7500 Du        
  19538 ****       128.0000 143.0000 101.0000 Du        
  19539 ****       128.0000 143.0000 101.2500 Du        
  19540 ****       128.0000 143.0000 101.5000 Du        
  19541 ****       128.0000 143.0000 101.7500 Du        
  19542 ****       128.0000 143.2500  94.0000 Du        
  19543 ****       128.0000 143.2500 100.7500 Du        
  19544 ****       128.0000 143.2500 101.0000 Du        
  19545 ****       128.0000 143.2500 101.2500 Du        
  19546 ****       128.0000 143.2500 101.5000 Du        
  19547 ****       128.0000 143.2500 101.7500 Du        
  19548 ****       128.0000 143.2500 102.0000 Du        
  19549 ****       128.0000 143.5000  92.2500 Du        
  19550 ****       128.0000 143.5000  92.5000 Du        
  19551 ****       128.0000 143.5000  92.7500 Du        
  19552 ****       128.0000 143.5000  93.0000 Du        
  19553 ****       128.0000 143.5000  93.2500 Du        
  19554 ****       128.0000 143.5000  93.5000 Du        
  19555 ****       128.0000 143.5000  93.7500 Du        
  19556 ****       128.0000 143.5000  94.0000 Du        
  19557 ****       128.0000 143.5000  94.2500 Du        
  19558 ****       128.0000 143.5000  94.5000 Du        
  19559 ****       128.0000 143.5000  94.7500 Du        
  19560 ****       128.0000 143.5000  95.0000 Du        
  19561 ****       128.0000 143.5000 101.0000 Du        
  19562 ****       128.0000 143.5000 101.2500 Du        
  19563 ****       128.0000 143.5000 101.5000 Du        
  19564 ****       128.0000 143.5000 101.7500 Du        
  19565 ****       128.0000 143.5000 102.0000 Du        
  19566 ****       128.0000 143.7500  90.7500 Du        
  19567 ****       128.0000 143.7500  91.0000 Du        
  19568 ****       128.0000 143.7500  91.2500 Du        
  19569 ****       128.0000 143.7500  91.5000 Du        
  19570 ****       128.0000 143.7500  91.7500 Du        
  19571 ****       128.0000 143.7500  92.0000 Du        
  19572 ****       128.0000 143.7500  92.2500 Du        
  19573 ****       128.0000 143.7500  92.5000 Du        
  19574 ****       128.0000 143.7500  92.7500 Du        
  19575 ****       128.0000 143.7500  93.0000 Du        
  19576 ****       128.0000 143.7500  93.2500 Du        
  19577 ****       128.0000 143.7500  93.5000 Du        
  19578 ****       128.0000 143.7500  93.7500 Du        
  19579 ****       128.0000 143.7500  94.0000 Du        
  19580 ****       128.0000 143.7500  94.2500 Du        
  19581 ****       128.0000 143.7500  94.5000 Du        
  19582 ****       128.0000 143.7500  94.7500 Du        
  19583 ****       128.0000 143.7500  95.0000 Du        
  19584 ****       128.0000 143.7500  95.2500 Du        
  19585 ****       128.0000 143.7500 100.7500 Du        
  19586 ****       128.0000 143.7500 101.0000 Du        
  19587 ****       128.0000 143.7500 101.2500 Du        
  19588 ****       128.0000 143.7500 101.5000 Du        
  19589 ****       128.0000 143.7500 101.7500 Du        
  19590 ****       128.0000 143.7500 102.0000 Du        
  19591 ****       128.0000 143.7500 102.2500 Du        
  19592 ****       128.0000 144.0000  90.5000 Du        
  19593 ****       128.0000 144.0000  90.7500 Du        
  19594 ****       128.0000 144.0000  91.0000 Du        
  19595 ****       128.0000 144.0000  91.2500 Du        
  19596 ****       128.0000 144.0000  91.5000 Du        
  19597 ****       128.0000 144.0000  91.7500 Du        
  19598 ****       128.0000 144.0000  92.0000 Du        
  19599 ****       128.0000 144.0000  92.2500 Du        
  19600 ****       128.0000 144.0000  92.5000 Du        
  19601 ****       128.0000 144.0000  92.7500 Du        
  19602 ****       128.0000 144.0000  93.0000 Du        
  19603 ****       128.0000 144.0000  93.2500 Du        
  19604 ****       128.0000 144.0000  93.5000 Du        
  19605 ****       128.0000 144.0000  93.7500 Du        
  19606 ****       128.0000 144.0000  94.0000 Du        
  19607 ****       128.0000 144.0000  94.2500 Du        
  19608 ****       128.0000 144.0000  94.5000 Du        
  19609 ****       128.0000 144.0000  94.7500 Du        
  19610 ****       128.0000 144.0000  95.0000 Du        
  19611 ****       128.0000 144.0000 100.7500 Du        
  19612 ****       128.0000 144.0000 101.0000 Du        
  19613 ****       128.0000 144.0000 101.2500 Du        
  19614 ****       128.0000 144.0000 101.5000 Du        
  19615 ****       128.0000 144.0000 101.7500 Du        
  19616 ****       128.0000 144.0000 102.0000 Du        
  19617 ****       128.0000 144.0000 102.2500 Du        
  19618 ****       128.0000 144.2500  90.5000 Du        
  19619 ****       128.0000 144.2500  90.7500 Du        
  19620 ****       128.0000 144.2500  91.0000 Du        
  19621 ****       128.0000 144.2500  91.2500 Du        
  19622 ****       128.0000 144.2500  91.5000 Du        
  19623 ****       128.0000 144.2500  91.7500 Du        
  19624 ****       128.0000 144.2500  92.0000 Du        
  19625 ****       128.0000 144.2500  92.2500 Du        
  19626 ****       128.0000 144.2500  92.5000 Du        
  19627 ****       128.0000 144.2500  92.7500 Du        
  19628 ****       128.0000 144.2500  93.0000 Du        
  19629 ****       128.0000 144.2500  93.2500 Du        
  19630 ****       128.0000 144.2500  93.5000 Du        
  19631 ****       128.0000 144.2500  93.7500 Du        
  19632 ****       128.0000 144.2500  94.0000 Du        
  19633 ****       128.0000 144.2500  94.2500 Du        
  19634 ****       128.0000 144.2500  94.5000 Du        
  19635 ****       128.0000 144.2500  94.7500 Du        
  19636 ****       128.0000 144.2500 100.7500 Du        
  19637 ****       128.0000 144.2500 101.0000 Du        
  19638 ****       128.0000 144.2500 101.2500 Du        
  19639 ****       128.0000 144.2500 101.5000 Du        
  19640 ****       128.0000 144.2500 101.7500 Du        
  19641 ****       128.0000 144.2500 102.0000 Du        
  19642 ****       128.0000 144.5000  90.7500 Du        
  19643 ****       128.0000 144.5000  91.0000 Du        
  19644 ****       128.0000 144.5000  91.2500 Du        
  19645 ****       128.0000 144.5000  92.2500 Du        
  19646 ****       128.0000 144.5000  92.5000 Du        
  19647 ****       128.0000 144.5000  92.7500 Du        
  19648 ****       128.0000 144.5000  93.0000 Du        
  19649 ****       128.0000 144.5000  93.2500 Du        
  19650 ****       128.0000 144.5000  93.5000 Du        
  19651 ****       128.0000 144.5000  93.7500 Du        
  19652 ****       128.0000 144.5000  94.0000 Du        
  19653 ****       128.0000 144.5000  94.2500 Du        
  19654 ****       128.0000 144.5000  94.5000 Du        
  19655 ****       128.0000 144.5000 100.7500 Du        
  19656 ****       128.0000 144.5000 101.0000 Du        
  19657 ****       128.0000 144.5000 101.2500 Du        
  19658 ****       128.0000 144.5000 101.5000 Du        
  19659 ****       128.0000 144.5000 101.7500 Du        
  19660 ****       128.0000 144.5000 102.0000 Du        
  19661 ****       128.0000 144.7500 100.5000 Du        
  19662 ****       128.0000 144.7500 100.7500 Du        
  19663 ****       128.0000 144.7500 101.0000 Du        
  19664 ****       128.0000 144.7500 101.2500 Du        
  19665 ****       128.0000 144.7500 101.5000 Du        
  19666 ****       128.0000 144.7500 101.7500 Du        
  19667 ****       128.0000 144.7500 102.0000 Du        
  19668 ****       128.0000 145.0000 100.5000 Du        
  19669 ****       128.0000 145.0000 100.7500 Du        
  19670 ****       128.0000 145.0000 101.0000 Du        
  19671 ****       128.0000 145.0000 101.2500 Du        
  19672 ****       128.0000 145.0000 101.5000 Du        
  19673 ****       128.0000 145.0000 101.7500 Du        
  19674 ****       128.0000 145.0000 102.0000 Du        
  19675 ****       128.0000 145.2500 100.5000 Du        
  19676 ****       128.0000 145.2500 100.7500 Du        
  19677 ****       128.0000 145.2500 101.0000 Du        
  19678 ****       128.0000 145.2500 101.2500 Du        
  19679 ****       128.0000 145.2500 101.5000 Du        
  19680 ****       128.0000 145.2500 101.7500 Du        
  19681 ****       128.0000 145.5000 100.7500 Du        
  19682 ****       128.0000 145.5000 101.0000 Du        
  19683 ****       128.0000 145.5000 101.2500 Du        
  19684 ****       128.0000 149.5000 147.2500 Du        
  19685 ****       128.0000 149.5000 147.5000 Du        
  19686 ****       128.0000 149.7500 147.2500 Du        
  19687 ****       128.0000 149.7500 147.5000 Du        
  19688 ****       128.0000 149.7500 147.7500 Du        
  19689 ****       128.0000 150.0000 147.0000 Du        
  19690 ****       128.0000 150.0000 147.2500 Du        
  19691 ****       128.0000 150.0000 147.5000 Du        
  19692 ****       128.0000 150.0000 147.7500 Du        
  19693 ****       128.0000 150.2500 147.2500 Du        
  19694 ****       128.0000 150.2500 147.5000 Du        
  19695 ****       128.0000 154.7500 111.2500 Du        
  19696 ****       128.0000 155.0000 111.2500 Du        
  19697 ****       128.0000 155.0000 111.5000 Du        
  19698 ****       128.0000 155.0000 111.7500 Du        
  19699 ****       128.0000 155.2500 111.7500 Du        
  19700 ****       128.2500 121.7500 104.2500 Du        
  19701 ****       128.2500 121.7500 104.5000 Du        
  19702 ****       128.2500 121.7500 104.7500 Du        
  19703 ****       128.2500 121.7500 105.0000 Du        
  19704 ****       128.2500 121.7500 105.2500 Du        
  19705 ****       128.2500 122.0000 104.0000 Du        
  19706 ****       128.2500 122.0000 104.2500 Du        
  19707 ****       128.2500 122.0000 104.5000 Du        
  19708 ****       128.2500 122.0000 104.7500 Du        
  19709 ****       128.2500 122.0000 105.0000 Du        
  19710 ****       128.2500 122.0000 105.2500 Du        
  19711 ****       128.2500 122.0000 164.5000 Du        
  19712 ****       128.2500 122.2500 103.7500 Du        
  19713 ****       128.2500 122.2500 104.0000 Du        
  19714 ****       128.2500 122.2500 104.2500 Du        
  19715 ****       128.2500 122.2500 104.5000 Du        
  19716 ****       128.2500 122.2500 104.7500 Du        
  19717 ****       128.2500 122.2500 105.0000 Du        
  19718 ****       128.2500 122.2500 105.2500 Du        
  19719 ****       128.2500 122.2500 105.5000 Du        
  19720 ****       128.2500 122.2500 164.2500 Du        
  19721 ****       128.2500 122.5000 103.7500 Du        
  19722 ****       128.2500 122.5000 104.0000 Du        
  19723 ****       128.2500 122.5000 104.2500 Du        
  19724 ****       128.2500 122.5000 104.5000 Du        
  19725 ****       128.2500 122.5000 104.7500 Du        
  19726 ****       128.2500 122.5000 105.0000 Du        
  19727 ****       128.2500 122.5000 105.2500 Du        
  19728 ****       128.2500 122.5000 105.5000 Du        
  19729 ****       128.2500 122.7500 103.5000 Du        
  19730 ****       128.2500 122.7500 103.7500 Du        
  19731 ****       128.2500 122.7500 104.0000 Du        
  19732 ****       128.2500 122.7500 104.2500 Du        
  19733 ****       128.2500 122.7500 104.5000 Du        
  19734 ****       128.2500 122.7500 104.7500 Du        
  19735 ****       128.2500 122.7500 105.0000 Du        
  19736 ****       128.2500 122.7500 105.2500 Du        
  19737 ****       128.2500 122.7500 105.5000 Du        
  19738 ****       128.2500 123.0000 103.7500 Du        
  19739 ****       128.2500 123.0000 104.0000 Du        
  19740 ****       128.2500 123.0000 104.2500 Du        
  19741 ****       128.2500 123.0000 104.5000 Du        
  19742 ****       128.2500 123.0000 104.7500 Du        
  19743 ****       128.2500 123.0000 105.0000 Du        
  19744 ****       128.2500 123.0000 105.2500 Du        
  19745 ****       128.2500 126.5000  94.2500 Du        
  19746 ****       128.2500 126.5000  98.2500 Du        
  19747 ****       128.2500 126.5000  98.5000 Du        
  19748 ****       128.2500 126.5000  98.7500 Du        
  19749 ****       128.2500 126.5000  99.0000 Du        
  19750 ****       128.2500 126.5000  99.2500 Du        
  19751 ****       128.2500 126.7500  94.2500 Du        
  19752 ****       128.2500 126.7500  94.7500 Du        
  19753 ****       128.2500 126.7500  97.7500 Du        
  19754 ****       128.2500 126.7500  98.0000 Du        
  19755 ****       128.2500 126.7500  98.2500 Du        
  19756 ****       128.2500 126.7500  98.5000 Du        
  19757 ****       128.2500 126.7500  98.7500 Du        
  19758 ****       128.2500 126.7500  99.0000 Du        
  19759 ****       128.2500 126.7500  99.2500 Du        
  19760 ****       128.2500 127.0000  94.2500 Du        
  19761 ****       128.2500 127.0000  94.7500 Du        
  19762 ****       128.2500 127.0000  95.0000 Du        
  19763 ****       128.2500 127.0000  96.7500 Du        
  19764 ****       128.2500 127.0000  97.0000 Du        
  19765 ****       128.2500 127.0000  97.7500 Du        
  19766 ****       128.2500 127.0000  98.0000 Du        
  19767 ****       128.2500 127.0000  98.2500 Du        
  19768 ****       128.2500 127.0000  98.5000 Du        
  19769 ****       128.2500 127.0000  98.7500 Du        
  19770 ****       128.2500 127.0000  99.0000 Du        
  19771 ****       128.2500 127.0000  99.2500 Du        
  19772 ****       128.2500 127.2500  94.7500 Du        
  19773 ****       128.2500 127.2500  97.7500 Du        
  19774 ****       128.2500 127.2500  98.0000 Du        
  19775 ****       128.2500 127.2500  98.2500 Du        
  19776 ****       128.2500 127.2500  98.5000 Du        
  19777 ****       128.2500 127.2500  98.7500 Du        
  19778 ****       128.2500 127.2500  99.0000 Du        
  19779 ****       128.2500 127.2500  99.2500 Du        
  19780 ****       128.2500 127.5000  98.0000 Du        
  19781 ****       128.2500 127.5000  98.2500 Du        
  19782 ****       128.2500 127.5000  98.5000 Du        
  19783 ****       128.2500 127.5000  98.7500 Du        
  19784 ****       128.2500 127.5000  99.0000 Du        
  19785 ****       128.2500 127.7500  98.5000 Du        
  19786 ****       128.2500 127.7500  98.7500 Du        
  19787 ****       128.2500 128.2500 164.0000 Du        
  19788 ****       128.2500 128.2500 164.2500 Du        
  19789 ****       128.2500 128.5000 164.0000 Du        
  19790 ****       128.2500 128.5000 164.2500 Du        
  19791 ****       128.2500 128.7500 164.0000 Du        
  19792 ****       128.2500 128.7500 164.2500 Du        
  19793 ****       128.2500 132.0000 157.7500 Du        
  19794 ****       128.2500 132.0000 158.0000 Du        
  19795 ****       128.2500 132.0000 158.2500 Du        
  19796 ****       128.2500 132.0000 158.5000 Du        
  19797 ****       128.2500 132.2500 157.5000 Du        
  19798 ****       128.2500 132.2500 157.7500 Du        
  19799 ****       128.2500 132.2500 158.0000 Du        
  19800 ****       128.2500 132.2500 158.2500 Du        
  19801 ****       128.2500 132.2500 158.5000 Du        
  19802 ****       128.2500 132.5000 157.5000 Du        
  19803 ****       128.2500 132.5000 157.7500 Du        
  19804 ****       128.2500 132.5000 158.0000 Du        
  19805 ****       128.2500 132.5000 158.2500 Du        
  19806 ****       128.2500 132.5000 158.5000 Du        
  19807 ****       128.2500 132.5000 158.7500 Du        
  19808 ****       128.2500 132.7500 157.5000 Du        
  19809 ****       128.2500 132.7500 157.7500 Du        
  19810 ****       128.2500 132.7500 158.0000 Du        
  19811 ****       128.2500 132.7500 158.2500 Du        
  19812 ****       128.2500 132.7500 158.5000 Du        
  19813 ****       128.2500 132.7500 158.7500 Du        
  19814 ****       128.2500 133.0000 157.0000 Du        
  19815 ****       128.2500 133.0000 157.2500 Du        
  19816 ****       128.2500 133.0000 157.5000 Du        
  19817 ****       128.2500 133.0000 157.7500 Du        
  19818 ****       128.2500 133.0000 158.0000 Du        
  19819 ****       128.2500 133.0000 158.2500 Du        
  19820 ****       128.2500 133.0000 158.5000 Du        
  19821 ****       128.2500 133.0000 158.7500 Du        
  19822 ****       128.2500 133.2500 157.2500 Du        
  19823 ****       128.2500 133.2500 157.5000 Du        
  19824 ****       128.2500 133.2500 157.7500 Du        
  19825 ****       128.2500 133.2500 158.0000 Du        
  19826 ****       128.2500 133.2500 158.2500 Du        
  19827 ****       128.2500 133.2500 158.5000 Du        
  19828 ****       128.2500 133.2500 158.7500 Du        
  19829 ****       128.2500 133.5000 156.7500 Du        
  19830 ****       128.2500 133.5000 157.0000 Du        
  19831 ****       128.2500 133.5000 157.2500 Du        
  19832 ****       128.2500 133.5000 157.5000 Du        
  19833 ****       128.2500 133.5000 157.7500 Du        
  19834 ****       128.2500 133.5000 158.0000 Du        
  19835 ****       128.2500 133.5000 158.2500 Du        
  19836 ****       128.2500 133.5000 158.5000 Du        
  19837 ****       128.2500 133.5000 158.7500 Du        
  19838 ****       128.2500 133.7500 156.7500 Du        
  19839 ****       128.2500 133.7500 157.0000 Du        
  19840 ****       128.2500 133.7500 157.2500 Du        
  19841 ****       128.2500 133.7500 157.5000 Du        
  19842 ****       128.2500 133.7500 157.7500 Du        
  19843 ****       128.2500 133.7500 158.0000 Du        
  19844 ****       128.2500 133.7500 158.2500 Du        
  19845 ****       128.2500 133.7500 158.5000 Du        
  19846 ****       128.2500 133.7500 158.7500 Du        
  19847 ****       128.2500 133.7500 159.0000 Du        
  19848 ****       128.2500 134.0000 156.7500 Du        
  19849 ****       128.2500 134.0000 157.0000 Du        
  19850 ****       128.2500 134.0000 157.2500 Du        
  19851 ****       128.2500 134.0000 157.5000 Du        
  19852 ****       128.2500 134.0000 157.7500 Du        
  19853 ****       128.2500 134.0000 158.0000 Du        
  19854 ****       128.2500 134.0000 158.2500 Du        
  19855 ****       128.2500 134.0000 158.5000 Du        
  19856 ****       128.2500 134.0000 158.7500 Du        
  19857 ****       128.2500 134.0000 159.0000 Du        
  19858 ****       128.2500 134.2500 157.0000 Du        
  19859 ****       128.2500 134.2500 157.2500 Du        
  19860 ****       128.2500 134.2500 157.5000 Du        
  19861 ****       128.2500 134.2500 157.7500 Du        
  19862 ****       128.2500 134.2500 158.0000 Du        
  19863 ****       128.2500 134.2500 158.2500 Du        
  19864 ****       128.2500 134.2500 158.5000 Du        
  19865 ****       128.2500 134.2500 158.7500 Du        
  19866 ****       128.2500 134.2500 159.0000 Du        
  19867 ****       128.2500 134.5000 157.2500 Du        
  19868 ****       128.2500 134.5000 157.5000 Du        
  19869 ****       128.2500 134.5000 157.7500 Du        
  19870 ****       128.2500 134.5000 158.0000 Du        
  19871 ****       128.2500 134.5000 158.2500 Du        
  19872 ****       128.2500 134.5000 158.5000 Du        
  19873 ****       128.2500 134.5000 158.7500 Du        
  19874 ****       128.2500 134.7500 157.5000 Du        
  19875 ****       128.2500 134.7500 157.7500 Du        
  19876 ****       128.2500 134.7500 158.0000 Du        
  19877 ****       128.2500 134.7500 158.2500 Du        
  19878 ****       128.2500 139.2500  97.7500 Du        
  19879 ****       128.2500 139.2500  98.0000 Du        
  19880 ****       128.2500 142.7500 100.7500 Du        
  19881 ****       128.2500 142.7500 101.0000 Du        
  19882 ****       128.2500 142.7500 101.2500 Du        
  19883 ****       128.2500 142.7500 101.5000 Du        
  19884 ****       128.2500 142.7500 101.7500 Du        
  19885 ****       128.2500 143.0000 100.7500 Du        
  19886 ****       128.2500 143.0000 101.0000 Du        
  19887 ****       128.2500 143.0000 101.2500 Du        
  19888 ****       128.2500 143.0000 101.5000 Du        
  19889 ****       128.2500 143.0000 101.7500 Du        
  19890 ****       128.2500 143.0000 102.0000 Du        
  19891 ****       128.2500 143.2500 100.7500 Du        
  19892 ****       128.2500 143.2500 101.0000 Du        
  19893 ****       128.2500 143.2500 101.2500 Du        
  19894 ****       128.2500 143.2500 101.5000 Du        
  19895 ****       128.2500 143.2500 101.7500 Du        
  19896 ****       128.2500 143.2500 102.0000 Du        
  19897 ****       128.2500 143.5000  92.5000 Du        
  19898 ****       128.2500 143.5000  92.7500 Du        
  19899 ****       128.2500 143.5000  93.0000 Du        
  19900 ****       128.2500 143.5000  93.2500 Du        
  19901 ****       128.2500 143.5000  93.5000 Du        
  19902 ****       128.2500 143.5000  93.7500 Du        
  19903 ****       128.2500 143.5000  94.0000 Du        
  19904 ****       128.2500 143.5000  94.2500 Du        
  19905 ****       128.2500 143.5000  94.5000 Du        
  19906 ****       128.2500 143.5000  94.7500 Du        
  19907 ****       128.2500 143.5000  95.0000 Du        
  19908 ****       128.2500 143.5000  95.2500 Du        
  19909 ****       128.2500 143.5000 100.7500 Du        
  19910 ****       128.2500 143.5000 101.0000 Du        
  19911 ****       128.2500 143.5000 101.2500 Du        
  19912 ****       128.2500 143.5000 101.5000 Du        
  19913 ****       128.2500 143.5000 101.7500 Du        
  19914 ****       128.2500 143.5000 102.0000 Du        
  19915 ****       128.2500 143.5000 102.2500 Du        
  19916 ****       128.2500 143.7500  91.5000 Du        
  19917 ****       128.2500 143.7500  91.7500 Du        
  19918 ****       128.2500 143.7500  92.0000 Du        
  19919 ****       128.2500 143.7500  92.2500 Du        
  19920 ****       128.2500 143.7500  92.5000 Du        
  19921 ****       128.2500 143.7500  92.7500 Du        
  19922 ****       128.2500 143.7500  93.0000 Du        
  19923 ****       128.2500 143.7500  93.2500 Du        
  19924 ****       128.2500 143.7500  93.5000 Du        
  19925 ****       128.2500 143.7500  93.7500 Du        
  19926 ****       128.2500 143.7500  94.0000 Du        
  19927 ****       128.2500 143.7500  94.2500 Du        
  19928 ****       128.2500 143.7500  94.5000 Du        
  19929 ****       128.2500 143.7500  94.7500 Du        
  19930 ****       128.2500 143.7500  95.0000 Du        
  19931 ****       128.2500 143.7500  95.2500 Du        
  19932 ****       128.2500 143.7500  95.5000 Du        
  19933 ****       128.2500 143.7500 100.7500 Du        
  19934 ****       128.2500 143.7500 101.0000 Du        
  19935 ****       128.2500 143.7500 101.2500 Du        
  19936 ****       128.2500 143.7500 101.5000 Du        
  19937 ****       128.2500 143.7500 101.7500 Du        
  19938 ****       128.2500 143.7500 102.0000 Du        
  19939 ****       128.2500 143.7500 102.2500 Du        
  19940 ****       128.2500 144.0000  91.0000 Du        
  19941 ****       128.2500 144.0000  91.2500 Du        
  19942 ****       128.2500 144.0000  91.5000 Du        
  19943 ****       128.2500 144.0000  91.7500 Du        
  19944 ****       128.2500 144.0000  92.0000 Du        
  19945 ****       128.2500 144.0000  92.2500 Du        
  19946 ****       128.2500 144.0000  92.5000 Du        
  19947 ****       128.2500 144.0000  92.7500 Du        
  19948 ****       128.2500 144.0000  93.0000 Du        
  19949 ****       128.2500 144.0000  93.2500 Du        
  19950 ****       128.2500 144.0000  93.5000 Du        
  19951 ****       128.2500 144.0000  93.7500 Du        
  19952 ****       128.2500 144.0000  94.0000 Du        
  19953 ****       128.2500 144.0000  94.2500 Du        
  19954 ****       128.2500 144.0000  94.5000 Du        
  19955 ****       128.2500 144.0000  94.7500 Du        
  19956 ****       128.2500 144.0000  95.0000 Du        
  19957 ****       128.2500 144.0000  95.2500 Du        
  19958 ****       128.2500 144.0000 100.5000 Du        
  19959 ****       128.2500 144.0000 100.7500 Du        
  19960 ****       128.2500 144.0000 101.0000 Du        
  19961 ****       128.2500 144.0000 101.2500 Du        
  19962 ****       128.2500 144.0000 101.5000 Du        
  19963 ****       128.2500 144.0000 101.7500 Du        
  19964 ****       128.2500 144.0000 102.0000 Du        
  19965 ****       128.2500 144.2500  90.7500 Du        
  19966 ****       128.2500 144.2500  91.0000 Du        
  19967 ****       128.2500 144.2500  91.2500 Du        
  19968 ****       128.2500 144.2500  91.5000 Du        
  19969 ****       128.2500 144.2500  91.7500 Du        
  19970 ****       128.2500 144.2500  92.0000 Du        
  19971 ****       128.2500 144.2500  92.2500 Du        
  19972 ****       128.2500 144.2500  92.5000 Du        
  19973 ****       128.2500 144.2500  92.7500 Du        
  19974 ****       128.2500 144.2500  93.0000 Du        
  19975 ****       128.2500 144.2500  93.2500 Du        
  19976 ****       128.2500 144.2500  93.5000 Du        
  19977 ****       128.2500 144.2500  93.7500 Du        
  19978 ****       128.2500 144.2500  94.0000 Du        
  19979 ****       128.2500 144.2500  94.2500 Du        
  19980 ****       128.2500 144.2500  94.5000 Du        
  19981 ****       128.2500 144.2500  94.7500 Du        
  19982 ****       128.2500 144.2500  95.0000 Du        
  19983 ****       128.2500 144.2500 100.5000 Du        
  19984 ****       128.2500 144.2500 100.7500 Du        
  19985 ****       128.2500 144.2500 101.0000 Du        
  19986 ****       128.2500 144.2500 101.2500 Du        
  19987 ****       128.2500 144.2500 101.5000 Du        
  19988 ****       128.2500 144.2500 101.7500 Du        
  19989 ****       128.2500 144.2500 102.0000 Du        
  19990 ****       128.2500 144.5000  90.7500 Du        
  19991 ****       128.2500 144.5000  91.0000 Du        
  19992 ****       128.2500 144.5000  91.2500 Du        
  19993 ****       128.2500 144.5000  91.5000 Du        
  19994 ****       128.2500 144.5000  91.7500 Du        
  19995 ****       128.2500 144.5000  92.0000 Du        
  19996 ****       128.2500 144.5000  92.2500 Du        
  19997 ****       128.2500 144.5000  92.5000 Du        
  19998 ****       128.2500 144.5000  92.7500 Du        
  19999 ****       128.2500 144.5000  93.0000 Du        
  20000 ****       128.2500 144.5000  93.2500 Du        
  20001 ****       128.2500 144.5000  93.5000 Du        
  20002 ****       128.2500 144.5000  93.7500 Du        
  20003 ****       128.2500 144.5000  94.0000 Du        
  20004 ****       128.2500 144.5000  94.2500 Du        
  20005 ****       128.2500 144.5000  94.5000 Du        
  20006 ****       128.2500 144.5000  94.7500 Du        
  20007 ****       128.2500 144.5000 100.5000 Du        
  20008 ****       128.2500 144.5000 100.7500 Du        
  20009 ****       128.2500 144.5000 101.0000 Du        
  20010 ****       128.2500 144.5000 101.2500 Du        
  20011 ****       128.2500 144.5000 101.5000 Du        
  20012 ****       128.2500 144.5000 101.7500 Du        
  20013 ****       128.2500 144.5000 102.0000 Du        
  20014 ****       128.2500 144.7500  91.2500 Du        
  20015 ****       128.2500 144.7500  93.7500 Du        
  20016 ****       128.2500 144.7500 100.2500 Du        
  20017 ****       128.2500 144.7500 100.5000 Du        
  20018 ****       128.2500 144.7500 100.7500 Du        
  20019 ****       128.2500 144.7500 101.0000 Du        
  20020 ****       128.2500 144.7500 101.2500 Du        
  20021 ****       128.2500 144.7500 101.5000 Du        
  20022 ****       128.2500 144.7500 101.7500 Du        
  20023 ****       128.2500 144.7500 102.0000 Du        
  20024 ****       128.2500 145.0000 100.2500 Du        
  20025 ****       128.2500 145.0000 100.5000 Du        
  20026 ****       128.2500 145.0000 100.7500 Du        
  20027 ****       128.2500 145.0000 101.0000 Du        
  20028 ****       128.2500 145.0000 101.2500 Du        
  20029 ****       128.2500 145.0000 101.5000 Du        
  20030 ****       128.2500 145.0000 101.7500 Du        
  20031 ****       128.2500 145.0000 102.0000 Du        
  20032 ****       128.2500 145.2500 100.2500 Du        
  20033 ****       128.2500 145.2500 100.5000 Du        
  20034 ****       128.2500 145.2500 100.7500 Du        
  20035 ****       128.2500 145.2500 101.0000 Du        
  20036 ****       128.2500 145.2500 101.2500 Du        
  20037 ****       128.2500 145.2500 101.5000 Du        
  20038 ****       128.2500 145.2500 101.7500 Du        
  20039 ****       128.2500 145.5000 100.5000 Du        
  20040 ****       128.2500 145.5000 100.7500 Du        
  20041 ****       128.2500 145.5000 101.0000 Du        
  20042 ****       128.2500 145.5000 101.2500 Du        
  20043 ****       128.2500 145.5000 101.5000 Du        
  20044 ****       128.2500 145.5000 101.7500 Du        
  20045 ****       128.2500 145.7500 100.7500 Du        
  20046 ****       128.2500 145.7500 101.0000 Du        
  20047 ****       128.2500 145.7500 101.2500 Du        
  20048 ****       128.2500 145.7500 101.5000 Du        
  20049 ****       128.2500 145.7500 101.7500 Du        
  20050 ****       128.2500 147.0000 135.2500 Du        
  20051 ****       128.2500 149.7500 147.2500 Du        
  20052 ****       128.2500 149.7500 147.5000 Du        
  20053 ****       128.2500 150.0000 147.0000 Du        
  20054 ****       128.2500 150.0000 147.2500 Du        
  20055 ****       128.2500 150.0000 147.5000 Du        
  20056 ****       128.5000 121.5000 104.7500 Du        
  20057 ****       128.5000 121.5000 105.0000 Du        
  20058 ****       128.5000 121.7500 104.2500 Du        
  20059 ****       128.5000 121.7500 104.5000 Du        
  20060 ****       128.5000 121.7500 104.7500 Du        
  20061 ****       128.5000 121.7500 105.0000 Du        
  20062 ****       128.5000 121.7500 105.2500 Du        
  20063 ****       128.5000 122.0000 104.0000 Du        
  20064 ****       128.5000 122.0000 104.2500 Du        
  20065 ****       128.5000 122.0000 104.5000 Du        
  20066 ****       128.5000 122.0000 104.7500 Du        
  20067 ****       128.5000 122.0000 105.0000 Du        
  20068 ****       128.5000 122.0000 105.2500 Du        
  20069 ****       128.5000 122.0000 105.5000 Du        
  20070 ****       128.5000 122.2500 103.7500 Du        
  20071 ****       128.5000 122.2500 104.0000 Du        
  20072 ****       128.5000 122.2500 104.2500 Du        
  20073 ****       128.5000 122.2500 104.5000 Du        
  20074 ****       128.5000 122.2500 104.7500 Du        
  20075 ****       128.5000 122.2500 105.0000 Du        
  20076 ****       128.5000 122.2500 105.2500 Du        
  20077 ****       128.5000 122.2500 105.5000 Du        
  20078 ****       128.5000 122.5000 103.5000 Du        
  20079 ****       128.5000 122.5000 103.7500 Du        
  20080 ****       128.5000 122.5000 104.0000 Du        
  20081 ****       128.5000 122.5000 104.2500 Du        
  20082 ****       128.5000 122.5000 104.5000 Du        
  20083 ****       128.5000 122.5000 104.7500 Du        
  20084 ****       128.5000 122.5000 105.0000 Du        
  20085 ****       128.5000 122.5000 105.2500 Du        
  20086 ****       128.5000 122.5000 105.5000 Du        
  20087 ****       128.5000 122.7500 103.7500 Du        
  20088 ****       128.5000 122.7500 104.0000 Du        
  20089 ****       128.5000 122.7500 104.2500 Du        
  20090 ****       128.5000 122.7500 104.5000 Du        
  20091 ****       128.5000 122.7500 104.7500 Du        
  20092 ****       128.5000 122.7500 105.0000 Du        
  20093 ****       128.5000 122.7500 105.2500 Du        
  20094 ****       128.5000 122.7500 105.5000 Du        
  20095 ****       128.5000 123.0000 103.7500 Du        
  20096 ****       128.5000 126.2500  99.0000 Du        
  20097 ****       128.5000 126.5000  98.0000 Du        
  20098 ****       128.5000 126.5000  98.2500 Du        
  20099 ****       128.5000 126.5000  98.5000 Du        
  20100 ****       128.5000 126.5000  98.7500 Du        
  20101 ****       128.5000 126.5000  99.0000 Du        
  20102 ****       128.5000 126.5000  99.2500 Du        
  20103 ****       128.5000 126.7500  97.7500 Du        
  20104 ****       128.5000 126.7500  98.0000 Du        
  20105 ****       128.5000 126.7500  98.2500 Du        
  20106 ****       128.5000 126.7500  98.5000 Du        
  20107 ****       128.5000 126.7500  98.7500 Du        
  20108 ****       128.5000 126.7500  99.0000 Du        
  20109 ****       128.5000 126.7500  99.2500 Du        
  20110 ****       128.5000 126.7500 118.7500 Du        
  20111 ****       128.5000 126.7500 119.0000 Du        
  20112 ****       128.5000 127.0000  97.2500 Du        
  20113 ****       128.5000 127.0000  97.5000 Du        
  20114 ****       128.5000 127.0000  97.7500 Du        
  20115 ****       128.5000 127.0000  98.0000 Du        
  20116 ****       128.5000 127.0000  98.2500 Du        
  20117 ****       128.5000 127.0000  98.5000 Du        
  20118 ****       128.5000 127.0000  98.7500 Du        
  20119 ****       128.5000 127.0000  99.0000 Du        
  20120 ****       128.5000 127.0000  99.2500 Du        
  20121 ****       128.5000 127.0000 118.5000 Du        
  20122 ****       128.5000 127.0000 118.7500 Du        
  20123 ****       128.5000 127.0000 119.0000 Du        
  20124 ****       128.5000 127.0000 119.2500 Du        
  20125 ****       128.5000 127.2500  97.5000 Du        
  20126 ****       128.5000 127.2500  97.7500 Du        
  20127 ****       128.5000 127.2500  98.0000 Du        
  20128 ****       128.5000 127.2500  98.2500 Du        
  20129 ****       128.5000 127.2500  98.5000 Du        
  20130 ****       128.5000 127.2500  98.7500 Du        
  20131 ****       128.5000 127.2500  99.0000 Du        
  20132 ****       128.5000 127.2500  99.2500 Du        
  20133 ****       128.5000 127.5000  97.2500 Du        
  20134 ****       128.5000 127.5000  97.5000 Du        
  20135 ****       128.5000 127.5000  97.7500 Du        
  20136 ****       128.5000 127.5000  98.0000 Du        
  20137 ****       128.5000 127.5000  98.2500 Du        
  20138 ****       128.5000 127.5000  98.5000 Du        
  20139 ****       128.5000 127.5000  98.7500 Du        
  20140 ****       128.5000 127.5000  99.0000 Du        
  20141 ****       128.5000 127.5000  99.2500 Du        
  20142 ****       128.5000 127.7500  97.7500 Du        
  20143 ****       128.5000 127.7500  98.0000 Du        
  20144 ****       128.5000 127.7500  98.2500 Du        
  20145 ****       128.5000 127.7500  98.5000 Du        
  20146 ****       128.5000 127.7500  98.7500 Du        
  20147 ****       128.5000 127.7500  99.0000 Du        
  20148 ****       128.5000 128.0000  98.2500 Du        
  20149 ****       128.5000 128.0000  98.5000 Du        
  20150 ****       128.5000 128.0000  98.7500 Du        
  20151 ****       128.5000 128.0000 164.0000 Du        
  20152 ****       128.5000 128.2500 164.0000 Du        
  20153 ****       128.5000 128.2500 164.2500 Du        
  20154 ****       128.5000 128.2500 164.5000 Du        
  20155 ****       128.5000 128.5000 164.0000 Du        
  20156 ****       128.5000 128.5000 164.2500 Du        
  20157 ****       128.5000 131.7500 157.5000 Du        
  20158 ****       128.5000 131.7500 157.7500 Du        
  20159 ****       128.5000 131.7500 158.0000 Du        
  20160 ****       128.5000 132.0000 157.5000 Du        
  20161 ****       128.5000 132.0000 157.7500 Du        
  20162 ****       128.5000 132.0000 158.0000 Du        
  20163 ****       128.5000 132.0000 158.2500 Du        
  20164 ****       128.5000 132.2500 157.5000 Du        
  20165 ****       128.5000 132.2500 157.7500 Du        
  20166 ****       128.5000 132.2500 158.0000 Du        
  20167 ****       128.5000 132.2500 158.2500 Du        
  20168 ****       128.5000 132.5000 157.5000 Du        
  20169 ****       128.5000 132.5000 157.7500 Du        
  20170 ****       128.5000 132.5000 158.0000 Du        
  20171 ****       128.5000 132.5000 158.2500 Du        
  20172 ****       128.5000 132.7500 157.2500 Du        
  20173 ****       128.5000 132.7500 157.5000 Du        
  20174 ****       128.5000 132.7500 157.7500 Du        
  20175 ****       128.5000 132.7500 158.0000 Du        
  20176 ****       128.5000 132.7500 158.2500 Du        
  20177 ****       128.5000 133.0000 157.0000 Du        
  20178 ****       128.5000 133.0000 157.2500 Du        
  20179 ****       128.5000 133.0000 157.5000 Du        
  20180 ****       128.5000 133.0000 157.7500 Du        
  20181 ****       128.5000 133.0000 158.0000 Du        
  20182 ****       128.5000 133.0000 158.2500 Du        
  20183 ****       128.5000 133.2500 157.0000 Du        
  20184 ****       128.5000 133.2500 157.2500 Du        
  20185 ****       128.5000 133.2500 157.5000 Du        
  20186 ****       128.5000 133.2500 157.7500 Du        
  20187 ****       128.5000 133.2500 158.0000 Du        
  20188 ****       128.5000 133.2500 158.2500 Du        
  20189 ****       128.5000 133.5000 156.7500 Du        
  20190 ****       128.5000 133.5000 157.0000 Du        
  20191 ****       128.5000 133.5000 157.2500 Du        
  20192 ****       128.5000 133.5000 157.5000 Du        
  20193 ****       128.5000 133.5000 157.7500 Du        
  20194 ****       128.5000 133.5000 158.0000 Du        
  20195 ****       128.5000 133.5000 158.2500 Du        
  20196 ****       128.5000 133.7500 156.7500 Du        
  20197 ****       128.5000 133.7500 157.0000 Du        
  20198 ****       128.5000 133.7500 157.2500 Du        
  20199 ****       128.5000 133.7500 157.5000 Du        
  20200 ****       128.5000 133.7500 157.7500 Du        
  20201 ****       128.5000 133.7500 158.0000 Du        
  20202 ****       128.5000 133.7500 158.2500 Du        
  20203 ****       128.5000 134.0000 156.7500 Du        
  20204 ****       128.5000 134.0000 157.0000 Du        
  20205 ****       128.5000 134.0000 157.2500 Du        
  20206 ****       128.5000 134.0000 157.5000 Du        
  20207 ****       128.5000 134.0000 157.7500 Du        
  20208 ****       128.5000 134.0000 158.0000 Du        
  20209 ****       128.5000 134.0000 158.2500 Du        
  20210 ****       128.5000 134.0000 158.5000 Du        
  20211 ****       128.5000 134.2500 157.0000 Du        
  20212 ****       128.5000 134.2500 157.2500 Du        
  20213 ****       128.5000 134.2500 157.5000 Du        
  20214 ****       128.5000 134.2500 157.7500 Du        
  20215 ****       128.5000 134.2500 158.0000 Du        
  20216 ****       128.5000 134.2500 158.2500 Du        
  20217 ****       128.5000 134.5000 157.2500 Du        
  20218 ****       128.5000 134.5000 157.5000 Du        
  20219 ****       128.5000 134.5000 157.7500 Du        
  20220 ****       128.5000 134.5000 158.0000 Du        
  20221 ****       128.5000 134.5000 158.2500 Du        
  20222 ****       128.5000 142.7500 101.0000 Du        
  20223 ****       128.5000 142.7500 101.2500 Du        
  20224 ****       128.5000 142.7500 101.5000 Du        
  20225 ****       128.5000 142.7500 101.7500 Du        
  20226 ****       128.5000 143.0000 100.7500 Du        
  20227 ****       128.5000 143.0000 101.0000 Du        
  20228 ****       128.5000 143.0000 101.2500 Du        
  20229 ****       128.5000 143.0000 101.5000 Du        
  20230 ****       128.5000 143.0000 101.7500 Du        
  20231 ****       128.5000 143.0000 102.0000 Du        
  20232 ****       128.5000 143.2500 100.7500 Du        
  20233 ****       128.5000 143.2500 101.0000 Du        
  20234 ****       128.5000 143.2500 101.2500 Du        
  20235 ****       128.5000 143.2500 101.5000 Du        
  20236 ****       128.5000 143.2500 101.7500 Du        
  20237 ****       128.5000 143.2500 102.0000 Du        
  20238 ****       128.5000 143.5000  94.2500 Du        
  20239 ****       128.5000 143.5000  94.5000 Du        
  20240 ****       128.5000 143.5000  94.7500 Du        
  20241 ****       128.5000 143.5000  95.0000 Du        
  20242 ****       128.5000 143.5000  95.2500 Du        
  20243 ****       128.5000 143.5000  95.5000 Du        
  20244 ****       128.5000 143.5000 100.5000 Du        
  20245 ****       128.5000 143.5000 100.7500 Du        
  20246 ****       128.5000 143.5000 101.0000 Du        
  20247 ****       128.5000 143.5000 101.2500 Du        
  20248 ****       128.5000 143.5000 101.5000 Du        
  20249 ****       128.5000 143.5000 101.7500 Du        
  20250 ****       128.5000 143.5000 102.0000 Du        
  20251 ****       128.5000 143.7500  92.7500 Du        
  20252 ****       128.5000 143.7500  93.0000 Du        
  20253 ****       128.5000 143.7500  93.2500 Du        
  20254 ****       128.5000 143.7500  93.5000 Du        
  20255 ****       128.5000 143.7500  93.7500 Du        
  20256 ****       128.5000 143.7500  94.0000 Du        
  20257 ****       128.5000 143.7500  94.2500 Du        
  20258 ****       128.5000 143.7500  94.5000 Du        
  20259 ****       128.5000 143.7500  94.7500 Du        
  20260 ****       128.5000 143.7500  95.0000 Du        
  20261 ****       128.5000 143.7500  95.2500 Du        
  20262 ****       128.5000 143.7500  95.5000 Du        
  20263 ****       128.5000 143.7500  95.7500 Du        
  20264 ****       128.5000 143.7500 100.5000 Du        
  20265 ****       128.5000 143.7500 100.7500 Du        
  20266 ****       128.5000 143.7500 101.0000 Du        
  20267 ****       128.5000 143.7500 101.2500 Du        
  20268 ****       128.5000 143.7500 101.5000 Du        
  20269 ****       128.5000 143.7500 101.7500 Du        
  20270 ****       128.5000 143.7500 102.0000 Du        
  20271 ****       128.5000 144.0000  91.7500 Du        
  20272 ****       128.5000 144.0000  92.0000 Du        
  20273 ****       128.5000 144.0000  92.2500 Du        
  20274 ****       128.5000 144.0000  92.5000 Du        
  20275 ****       128.5000 144.0000  92.7500 Du        
  20276 ****       128.5000 144.0000  93.0000 Du        
  20277 ****       128.5000 144.0000  93.2500 Du        
  20278 ****       128.5000 144.0000  93.5000 Du        
  20279 ****       128.5000 144.0000  93.7500 Du        
  20280 ****       128.5000 144.0000  94.0000 Du        
  20281 ****       128.5000 144.0000  94.2500 Du        
  20282 ****       128.5000 144.0000  94.5000 Du        
  20283 ****       128.5000 144.0000  94.7500 Du        
  20284 ****       128.5000 144.0000  95.0000 Du        
  20285 ****       128.5000 144.0000  95.2500 Du        
  20286 ****       128.5000 144.0000  95.5000 Du        
  20287 ****       128.5000 144.0000 100.5000 Du        
  20288 ****       128.5000 144.0000 100.7500 Du        
  20289 ****       128.5000 144.0000 101.0000 Du        
  20290 ****       128.5000 144.0000 101.2500 Du        
  20291 ****       128.5000 144.0000 101.5000 Du        
  20292 ****       128.5000 144.0000 101.7500 Du        
  20293 ****       128.5000 144.0000 102.0000 Du        
  20294 ****       128.5000 144.2500  91.5000 Du        
  20295 ****       128.5000 144.2500  91.7500 Du        
  20296 ****       128.5000 144.2500  92.0000 Du        
  20297 ****       128.5000 144.2500  92.2500 Du        
  20298 ****       128.5000 144.2500  92.5000 Du        
  20299 ****       128.5000 144.2500  92.7500 Du        
  20300 ****       128.5000 144.2500  93.0000 Du        
  20301 ****       128.5000 144.2500  93.2500 Du        
  20302 ****       128.5000 144.2500  93.5000 Du        
  20303 ****       128.5000 144.2500  93.7500 Du        
  20304 ****       128.5000 144.2500  94.0000 Du        
  20305 ****       128.5000 144.2500  94.2500 Du        
  20306 ****       128.5000 144.2500  94.5000 Du        
  20307 ****       128.5000 144.2500  94.7500 Du        
  20308 ****       128.5000 144.2500  95.0000 Du        
  20309 ****       128.5000 144.2500  95.2500 Du        
  20310 ****       128.5000 144.2500 100.2500 Du        
  20311 ****       128.5000 144.2500 100.5000 Du        
  20312 ****       128.5000 144.2500 100.7500 Du        
  20313 ****       128.5000 144.2500 101.0000 Du        
  20314 ****       128.5000 144.2500 101.2500 Du        
  20315 ****       128.5000 144.2500 101.5000 Du        
  20316 ****       128.5000 144.2500 101.7500 Du        
  20317 ****       128.5000 144.2500 102.0000 Du        
  20318 ****       128.5000 144.5000  91.2500 Du        
  20319 ****       128.5000 144.5000  91.5000 Du        
  20320 ****       128.5000 144.5000  91.7500 Du        
  20321 ****       128.5000 144.5000  92.0000 Du        
  20322 ****       128.5000 144.5000  92.2500 Du        
  20323 ****       128.5000 144.5000  92.5000 Du        
  20324 ****       128.5000 144.5000  92.7500 Du        
  20325 ****       128.5000 144.5000  93.0000 Du        
  20326 ****       128.5000 144.5000  93.2500 Du        
  20327 ****       128.5000 144.5000  93.5000 Du        
  20328 ****       128.5000 144.5000  93.7500 Du        
  20329 ****       128.5000 144.5000  94.0000 Du        
  20330 ****       128.5000 144.5000  94.2500 Du        
  20331 ****       128.5000 144.5000  94.5000 Du        
  20332 ****       128.5000 144.5000  94.7500 Du        
  20333 ****       128.5000 144.5000  95.0000 Du        
  20334 ****       128.5000 144.5000 100.2500 Du        
  20335 ****       128.5000 144.5000 100.5000 Du        
  20336 ****       128.5000 144.5000 100.7500 Du        
  20337 ****       128.5000 144.5000 101.0000 Du        
  20338 ****       128.5000 144.5000 101.2500 Du        
  20339 ****       128.5000 144.5000 101.5000 Du        
  20340 ****       128.5000 144.5000 101.7500 Du        
  20341 ****       128.5000 144.5000 102.0000 Du        
  20342 ****       128.5000 144.7500  91.7500 Du        
  20343 ****       128.5000 144.7500  92.0000 Du        
  20344 ****       128.5000 144.7500  92.2500 Du        
  20345 ****       128.5000 144.7500  92.5000 Du        
  20346 ****       128.5000 144.7500  92.7500 Du        
  20347 ****       128.5000 144.7500  93.0000 Du        
  20348 ****       128.5000 144.7500  93.2500 Du        
  20349 ****       128.5000 144.7500 100.0000 Du        
  20350 ****       128.5000 144.7500 100.2500 Du        
  20351 ****       128.5000 144.7500 100.5000 Du        
  20352 ****       128.5000 144.7500 100.7500 Du        
  20353 ****       128.5000 144.7500 101.0000 Du        
  20354 ****       128.5000 144.7500 101.2500 Du        
  20355 ****       128.5000 144.7500 101.5000 Du        
  20356 ****       128.5000 144.7500 101.7500 Du        
  20357 ****       128.5000 145.0000 100.0000 Du        
  20358 ****       128.5000 145.0000 100.2500 Du        
  20359 ****       128.5000 145.0000 100.5000 Du        
  20360 ****       128.5000 145.0000 100.7500 Du        
  20361 ****       128.5000 145.0000 101.0000 Du        
  20362 ****       128.5000 145.0000 101.2500 Du        
  20363 ****       128.5000 145.0000 101.5000 Du        
  20364 ****       128.5000 145.0000 101.7500 Du        
  20365 ****       128.5000 145.2500 100.2500 Du        
  20366 ****       128.5000 145.2500 100.5000 Du        
  20367 ****       128.5000 145.2500 100.7500 Du        
  20368 ****       128.5000 145.2500 101.0000 Du        
  20369 ****       128.5000 145.2500 101.2500 Du        
  20370 ****       128.5000 145.2500 101.5000 Du        
  20371 ****       128.5000 145.2500 101.7500 Du        
  20372 ****       128.5000 145.5000 100.5000 Du        
  20373 ****       128.5000 145.5000 100.7500 Du        
  20374 ****       128.5000 145.5000 101.0000 Du        
  20375 ****       128.5000 145.5000 101.2500 Du        
  20376 ****       128.5000 145.5000 101.5000 Du        
  20377 ****       128.5000 145.5000 101.7500 Du        
  20378 ****       128.5000 145.7500 100.7500 Du        
  20379 ****       128.5000 145.7500 101.0000 Du        
  20380 ****       128.5000 145.7500 101.2500 Du        
  20381 ****       128.5000 145.7500 101.5000 Du        
  20382 ****       128.5000 145.7500 101.7500 Du        
  20383 ****       128.5000 146.0000 101.2500 Du        
  20384 ****       128.5000 146.0000 101.5000 Du        
  20385 ****       128.5000 146.0000 101.7500 Du        
  20386 ****       128.5000 150.0000 147.0000 Du        
  20387 ****       128.5000 150.2500 147.0000 Du        
  20388 ****       128.5000 157.7500 146.0000 Du        
  20389 ****       128.5000 157.7500 162.0000 Du        
  20390 ****       128.5000 158.0000 162.2500 Du        
  20391 ****       128.7500 121.0000 141.2500 Du        
  20392 ****       128.7500 121.5000 104.5000 Du        
  20393 ****       128.7500 121.5000 104.7500 Du        
  20394 ****       128.7500 121.5000 105.0000 Du        
  20395 ****       128.7500 121.7500 104.2500 Du        
  20396 ****       128.7500 121.7500 104.5000 Du        
  20397 ****       128.7500 121.7500 104.7500 Du        
  20398 ****       128.7500 121.7500 105.0000 Du        
  20399 ****       128.7500 121.7500 105.2500 Du        
  20400 ****       128.7500 122.0000 103.7500 Du        
  20401 ****       128.7500 122.0000 104.0000 Du        
  20402 ****       128.7500 122.0000 104.2500 Du        
  20403 ****       128.7500 122.0000 104.5000 Du        
  20404 ****       128.7500 122.0000 104.7500 Du        
  20405 ****       128.7500 122.0000 105.0000 Du        
  20406 ****       128.7500 122.0000 105.2500 Du        
  20407 ****       128.7500 122.0000 105.5000 Du        
  20408 ****       128.7500 122.2500 103.7500 Du        
  20409 ****       128.7500 122.2500 104.0000 Du        
  20410 ****       128.7500 122.2500 104.2500 Du        
  20411 ****       128.7500 122.2500 104.5000 Du        
  20412 ****       128.7500 122.2500 104.7500 Du        
  20413 ****       128.7500 122.2500 105.0000 Du        
  20414 ****       128.7500 122.2500 105.2500 Du        
  20415 ****       128.7500 122.2500 105.5000 Du        
  20416 ****       128.7500 122.5000 103.5000 Du        
  20417 ****       128.7500 122.5000 103.7500 Du        
  20418 ****       128.7500 122.5000 104.0000 Du        
  20419 ****       128.7500 122.5000 104.2500 Du        
  20420 ****       128.7500 122.5000 104.5000 Du        
  20421 ****       128.7500 122.5000 104.7500 Du        
  20422 ****       128.7500 122.5000 105.0000 Du        
  20423 ****       128.7500 122.5000 105.2500 Du        
  20424 ****       128.7500 122.5000 105.5000 Du        
  20425 ****       128.7500 122.7500 103.5000 Du        
  20426 ****       128.7500 122.7500 103.7500 Du        
  20427 ****       128.7500 122.7500 104.0000 Du        
  20428 ****       128.7500 122.7500 104.2500 Du        
  20429 ****       128.7500 122.7500 104.5000 Du        
  20430 ****       128.7500 122.7500 104.7500 Du        
  20431 ****       128.7500 122.7500 105.0000 Du        
  20432 ****       128.7500 122.7500 105.2500 Du        
  20433 ****       128.7500 126.2500  98.7500 Du        
  20434 ****       128.7500 126.2500  99.0000 Du        
  20435 ****       128.7500 126.5000  97.7500 Du        
  20436 ****       128.7500 126.5000  98.0000 Du        
  20437 ****       128.7500 126.5000  98.2500 Du        
  20438 ****       128.7500 126.5000  98.5000 Du        
  20439 ****       128.7500 126.5000  98.7500 Du        
  20440 ****       128.7500 126.5000  99.0000 Du        
  20441 ****       128.7500 126.5000  99.2500 Du        
  20442 ****       128.7500 126.7500  97.2500 Du        
  20443 ****       128.7500 126.7500  97.5000 Du        
  20444 ****       128.7500 126.7500  97.7500 Du        
  20445 ****       128.7500 126.7500  98.0000 Du        
  20446 ****       128.7500 126.7500  98.2500 Du        
  20447 ****       128.7500 126.7500  98.5000 Du        
  20448 ****       128.7500 126.7500  98.7500 Du        
  20449 ****       128.7500 126.7500  99.0000 Du        
  20450 ****       128.7500 126.7500  99.2500 Du        
  20451 ****       128.7500 126.7500 118.2500 Du        
  20452 ****       128.7500 126.7500 118.5000 Du        
  20453 ****       128.7500 126.7500 118.7500 Du        
  20454 ****       128.7500 127.0000  96.7500 Du        
  20455 ****       128.7500 127.0000  97.0000 Du        
  20456 ****       128.7500 127.0000  97.2500 Du        
  20457 ****       128.7500 127.0000  97.5000 Du        
  20458 ****       128.7500 127.0000  97.7500 Du        
  20459 ****       128.7500 127.0000  98.0000 Du        
  20460 ****       128.7500 127.0000  98.2500 Du        
  20461 ****       128.7500 127.0000  98.5000 Du        
  20462 ****       128.7500 127.0000  98.7500 Du        
  20463 ****       128.7500 127.0000  99.0000 Du        
  20464 ****       128.7500 127.0000  99.2500 Du        
  20465 ****       128.7500 127.0000 118.2500 Du        
  20466 ****       128.7500 127.0000 118.5000 Du        
  20467 ****       128.7500 127.0000 118.7500 Du        
  20468 ****       128.7500 127.0000 119.0000 Du        
  20469 ****       128.7500 127.0000 119.2500 Du        
  20470 ****       128.7500 127.2500  96.7500 Du        
  20471 ****       128.7500 127.2500  97.0000 Du        
  20472 ****       128.7500 127.2500  97.2500 Du        
  20473 ****       128.7500 127.2500  97.5000 Du        
  20474 ****       128.7500 127.2500  97.7500 Du        
  20475 ****       128.7500 127.2500  98.0000 Du        
  20476 ****       128.7500 127.2500  98.2500 Du        
  20477 ****       128.7500 127.2500  98.5000 Du        
  20478 ****       128.7500 127.2500  98.7500 Du        
  20479 ****       128.7500 127.2500  99.0000 Du        
  20480 ****       128.7500 127.2500  99.2500 Du        
  20481 ****       128.7500 127.5000  96.2500 Du        
  20482 ****       128.7500 127.5000  96.5000 Du        
  20483 ****       128.7500 127.5000  96.7500 Du        
  20484 ****       128.7500 127.5000  97.0000 Du        
  20485 ****       128.7500 127.5000  97.2500 Du        
  20486 ****       128.7500 127.5000  97.5000 Du        
  20487 ****       128.7500 127.5000  97.7500 Du        
  20488 ****       128.7500 127.5000  98.0000 Du        
  20489 ****       128.7500 127.5000  98.2500 Du        
  20490 ****       128.7500 127.5000  98.5000 Du        
  20491 ****       128.7500 127.5000  98.7500 Du        
  20492 ****       128.7500 127.5000  99.0000 Du        
  20493 ****       128.7500 127.5000  99.2500 Du        
  20494 ****       128.7500 127.7500  97.0000 Du        
  20495 ****       128.7500 127.7500  97.2500 Du        
  20496 ****       128.7500 127.7500  97.5000 Du        
  20497 ****       128.7500 127.7500  97.7500 Du        
  20498 ****       128.7500 127.7500  98.0000 Du        
  20499 ****       128.7500 127.7500  98.2500 Du        
  20500 ****       128.7500 127.7500  98.5000 Du        
  20501 ****       128.7500 127.7500  98.7500 Du        
  20502 ****       128.7500 127.7500  99.0000 Du        
  20503 ****       128.7500 127.7500  99.2500 Du        
  20504 ****       128.7500 128.0000  97.5000 Du        
  20505 ****       128.7500 128.0000  97.7500 Du        
  20506 ****       128.7500 128.0000  98.0000 Du        
  20507 ****       128.7500 128.0000  98.2500 Du        
  20508 ****       128.7500 128.0000  98.5000 Du        
  20509 ****       128.7500 128.0000  98.7500 Du        
  20510 ****       128.7500 128.0000  99.0000 Du        
  20511 ****       128.7500 128.0000 164.0000 Du        
  20512 ****       128.7500 128.0000 164.2500 Du        
  20513 ****       128.7500 128.0000 164.5000 Du        
  20514 ****       128.7500 128.0000 164.7500 Du        
  20515 ****       128.7500 128.2500 164.0000 Du        
  20516 ****       128.7500 128.2500 164.2500 Du        
  20517 ****       128.7500 128.2500 164.5000 Du        
  20518 ****       128.7500 128.2500 164.7500 Du        
  20519 ****       128.7500 131.7500 157.5000 Du        
  20520 ****       128.7500 131.7500 157.7500 Du        
  20521 ****       128.7500 132.0000 157.2500 Du        
  20522 ****       128.7500 132.0000 157.5000 Du        
  20523 ****       128.7500 132.0000 157.7500 Du        
  20524 ****       128.7500 132.0000 158.0000 Du        
  20525 ****       128.7500 132.2500 157.5000 Du        
  20526 ****       128.7500 132.2500 157.7500 Du        
  20527 ****       128.7500 132.5000 157.2500 Du        
  20528 ****       128.7500 132.5000 157.5000 Du        
  20529 ****       128.7500 132.5000 157.7500 Du        
  20530 ****       128.7500 132.7500 156.7500 Du        
  20531 ****       128.7500 132.7500 157.0000 Du        
  20532 ****       128.7500 132.7500 157.2500 Du        
  20533 ****       128.7500 132.7500 157.5000 Du        
  20534 ****       128.7500 132.7500 157.7500 Du        
  20535 ****       128.7500 133.0000 156.7500 Du        
  20536 ****       128.7500 133.0000 157.0000 Du        
  20537 ****       128.7500 133.0000 157.2500 Du        
  20538 ****       128.7500 133.0000 157.5000 Du        
  20539 ****       128.7500 133.0000 157.7500 Du        
  20540 ****       128.7500 133.2500 156.7500 Du        
  20541 ****       128.7500 133.2500 157.0000 Du        
  20542 ****       128.7500 133.2500 157.2500 Du        
  20543 ****       128.7500 133.2500 157.5000 Du        
  20544 ****       128.7500 133.2500 157.7500 Du        
  20545 ****       128.7500 133.5000 156.5000 Du        
  20546 ****       128.7500 133.5000 156.7500 Du        
  20547 ****       128.7500 133.5000 157.0000 Du        
  20548 ****       128.7500 133.5000 157.2500 Du        
  20549 ****       128.7500 133.5000 157.5000 Du        
  20550 ****       128.7500 133.5000 157.7500 Du        
  20551 ****       128.7500 133.5000 158.0000 Du        
  20552 ****       128.7500 133.7500 156.5000 Du        
  20553 ****       128.7500 133.7500 156.7500 Du        
  20554 ****       128.7500 133.7500 157.0000 Du        
  20555 ****       128.7500 133.7500 157.2500 Du        
  20556 ****       128.7500 133.7500 157.5000 Du        
  20557 ****       128.7500 133.7500 157.7500 Du        
  20558 ****       128.7500 133.7500 158.0000 Du        
  20559 ****       128.7500 134.0000 156.7500 Du        
  20560 ****       128.7500 134.0000 157.0000 Du        
  20561 ****       128.7500 134.0000 157.2500 Du        
  20562 ****       128.7500 134.0000 157.5000 Du        
  20563 ****       128.7500 134.0000 157.7500 Du        
  20564 ****       128.7500 134.0000 158.0000 Du        
  20565 ****       128.7500 134.2500 157.0000 Du        
  20566 ****       128.7500 134.2500 157.2500 Du        
  20567 ****       128.7500 134.2500 157.5000 Du        
  20568 ****       128.7500 134.2500 157.7500 Du        
  20569 ****       128.7500 134.2500 158.0000 Du        
  20570 ****       128.7500 134.5000 157.2500 Du        
  20571 ****       128.7500 134.5000 157.5000 Du        
  20572 ****       128.7500 134.5000 157.7500 Du        
  20573 ****       128.7500 134.5000 158.0000 Du        
  20574 ****       128.7500 139.0000  97.7500 Du        
  20575 ****       128.7500 139.2500  97.7500 Du        
  20576 ****       128.7500 142.7500 100.7500 Du        
  20577 ****       128.7500 142.7500 101.0000 Du        
  20578 ****       128.7500 142.7500 101.2500 Du        
  20579 ****       128.7500 142.7500 101.5000 Du        
  20580 ****       128.7500 142.7500 101.7500 Du        
  20581 ****       128.7500 142.7500 102.0000 Du        
  20582 ****       128.7500 143.0000 100.7500 Du        
  20583 ****       128.7500 143.0000 101.0000 Du        
  20584 ****       128.7500 143.0000 101.2500 Du        
  20585 ****       128.7500 143.0000 101.5000 Du        
  20586 ****       128.7500 143.0000 101.7500 Du        
  20587 ****       128.7500 143.0000 102.0000 Du        
  20588 ****       128.7500 143.0000 102.2500 Du        
  20589 ****       128.7500 143.2500 100.7500 Du        
  20590 ****       128.7500 143.2500 101.0000 Du        
  20591 ****       128.7500 143.2500 101.2500 Du        
  20592 ****       128.7500 143.2500 101.5000 Du        
  20593 ****       128.7500 143.2500 101.7500 Du        
  20594 ****       128.7500 143.2500 102.0000 Du        
  20595 ****       128.7500 143.2500 102.2500 Du        
  20596 ****       128.7500 143.5000  94.2500 Du        
  20597 ****       128.7500 143.5000  94.5000 Du        
  20598 ****       128.7500 143.5000  94.7500 Du        
  20599 ****       128.7500 143.5000  95.0000 Du        
  20600 ****       128.7500 143.5000  95.2500 Du        
  20601 ****       128.7500 143.5000  95.5000 Du        
  20602 ****       128.7500 143.5000  95.7500 Du        
  20603 ****       128.7500 143.5000 100.5000 Du        
  20604 ****       128.7500 143.5000 100.7500 Du        
  20605 ****       128.7500 143.5000 101.0000 Du        
  20606 ****       128.7500 143.5000 101.2500 Du        
  20607 ****       128.7500 143.5000 101.5000 Du        
  20608 ****       128.7500 143.5000 101.7500 Du        
  20609 ****       128.7500 143.5000 102.0000 Du        
  20610 ****       128.7500 143.5000 102.2500 Du        
  20611 ****       128.7500 143.7500  92.7500 Du        
  20612 ****       128.7500 143.7500  93.0000 Du        
  20613 ****       128.7500 143.7500  93.2500 Du        
  20614 ****       128.7500 143.7500  93.5000 Du        
  20615 ****       128.7500 143.7500  93.7500 Du        
  20616 ****       128.7500 143.7500  94.0000 Du        
  20617 ****       128.7500 143.7500  94.2500 Du        
  20618 ****       128.7500 143.7500  94.5000 Du        
  20619 ****       128.7500 143.7500  94.7500 Du        
  20620 ****       128.7500 143.7500  95.0000 Du        
  20621 ****       128.7500 143.7500  95.2500 Du        
  20622 ****       128.7500 143.7500  95.5000 Du        
  20623 ****       128.7500 143.7500  95.7500 Du        
  20624 ****       128.7500 143.7500 100.2500 Du        
  20625 ****       128.7500 143.7500 100.5000 Du        
  20626 ****       128.7500 143.7500 100.7500 Du        
  20627 ****       128.7500 143.7500 101.0000 Du        
  20628 ****       128.7500 143.7500 101.2500 Du        
  20629 ****       128.7500 143.7500 101.5000 Du        
  20630 ****       128.7500 143.7500 101.7500 Du        
  20631 ****       128.7500 143.7500 102.0000 Du        
  20632 ****       128.7500 143.7500 102.2500 Du        
  20633 ****       128.7500 144.0000  92.0000 Du        
  20634 ****       128.7500 144.0000  92.2500 Du        
  20635 ****       128.7500 144.0000  92.5000 Du        
  20636 ****       128.7500 144.0000  92.7500 Du        
  20637 ****       128.7500 144.0000  93.0000 Du        
  20638 ****       128.7500 144.0000  93.2500 Du        
  20639 ****       128.7500 144.0000  93.5000 Du        
  20640 ****       128.7500 144.0000  93.7500 Du        
  20641 ****       128.7500 144.0000  94.0000 Du        
  20642 ****       128.7500 144.0000  94.2500 Du        
  20643 ****       128.7500 144.0000  94.5000 Du        
  20644 ****       128.7500 144.0000  94.7500 Du        
  20645 ****       128.7500 144.0000  95.0000 Du        
  20646 ****       128.7500 144.0000  95.2500 Du        
  20647 ****       128.7500 144.0000  95.5000 Du        
  20648 ****       128.7500 144.0000 100.0000 Du        
  20649 ****       128.7500 144.0000 100.2500 Du        
  20650 ****       128.7500 144.0000 100.5000 Du        
  20651 ****       128.7500 144.0000 100.7500 Du        
  20652 ****       128.7500 144.0000 101.0000 Du        
  20653 ****       128.7500 144.0000 101.2500 Du        
  20654 ****       128.7500 144.0000 101.5000 Du        
  20655 ****       128.7500 144.0000 101.7500 Du        
  20656 ****       128.7500 144.0000 102.0000 Du        
  20657 ****       128.7500 144.2500  91.5000 Du        
  20658 ****       128.7500 144.2500  91.7500 Du        
  20659 ****       128.7500 144.2500  92.0000 Du        
  20660 ****       128.7500 144.2500  92.2500 Du        
  20661 ****       128.7500 144.2500  92.5000 Du        
  20662 ****       128.7500 144.2500  92.7500 Du        
  20663 ****       128.7500 144.2500  93.0000 Du        
  20664 ****       128.7500 144.2500  93.2500 Du        
  20665 ****       128.7500 144.2500  93.5000 Du        
  20666 ****       128.7500 144.2500  93.7500 Du        
  20667 ****       128.7500 144.2500  94.0000 Du        
  20668 ****       128.7500 144.2500  94.2500 Du        
  20669 ****       128.7500 144.2500  94.5000 Du        
  20670 ****       128.7500 144.2500  94.7500 Du        
  20671 ****       128.7500 144.2500  95.0000 Du        
  20672 ****       128.7500 144.2500  95.2500 Du        
  20673 ****       128.7500 144.2500 100.0000 Du        
  20674 ****       128.7500 144.2500 100.2500 Du        
  20675 ****       128.7500 144.2500 100.5000 Du        
  20676 ****       128.7500 144.2500 100.7500 Du        
  20677 ****       128.7500 144.2500 101.0000 Du        
  20678 ****       128.7500 144.2500 101.2500 Du        
  20679 ****       128.7500 144.2500 101.5000 Du        
  20680 ****       128.7500 144.2500 101.7500 Du        
  20681 ****       128.7500 144.2500 102.0000 Du        
  20682 ****       128.7500 144.5000  91.2500 Du        
  20683 ****       128.7500 144.5000  91.5000 Du        
  20684 ****       128.7500 144.5000  91.7500 Du        
  20685 ****       128.7500 144.5000  92.0000 Du        
  20686 ****       128.7500 144.5000  92.2500 Du        
  20687 ****       128.7500 144.5000  92.5000 Du        
  20688 ****       128.7500 144.5000  92.7500 Du        
  20689 ****       128.7500 144.5000  93.0000 Du        
  20690 ****       128.7500 144.5000  93.2500 Du        
  20691 ****       128.7500 144.5000  93.5000 Du        
  20692 ****       128.7500 144.5000  93.7500 Du        
  20693 ****       128.7500 144.5000  94.7500 Du        
  20694 ****       128.7500 144.5000 100.0000 Du        
  20695 ****       128.7500 144.5000 100.2500 Du        
  20696 ****       128.7500 144.5000 100.5000 Du        
  20697 ****       128.7500 144.5000 100.7500 Du        
  20698 ****       128.7500 144.5000 101.0000 Du        
  20699 ****       128.7500 144.5000 101.2500 Du        
  20700 ****       128.7500 144.5000 101.5000 Du        
  20701 ****       128.7500 144.5000 101.7500 Du        
  20702 ****       128.7500 144.7500  91.2500 Du        
  20703 ****       128.7500 144.7500  91.5000 Du        
  20704 ****       128.7500 144.7500  91.7500 Du        
  20705 ****       128.7500 144.7500  92.0000 Du        
  20706 ****       128.7500 144.7500  92.2500 Du        
  20707 ****       128.7500 144.7500  92.5000 Du        
  20708 ****       128.7500 144.7500  92.7500 Du        
  20709 ****       128.7500 144.7500  93.0000 Du        
  20710 ****       128.7500 144.7500  93.2500 Du        
  20711 ****       128.7500 144.7500 100.0000 Du        
  20712 ****       128.7500 144.7500 100.2500 Du        
  20713 ****       128.7500 144.7500 100.5000 Du        
  20714 ****       128.7500 144.7500 100.7500 Du        
  20715 ****       128.7500 144.7500 101.0000 Du        
  20716 ****       128.7500 144.7500 101.2500 Du        
  20717 ****       128.7500 144.7500 101.5000 Du        
  20718 ****       128.7500 144.7500 101.7500 Du        
  20719 ****       128.7500 145.0000  91.5000 Du        
  20720 ****       128.7500 145.0000  91.7500 Du        
  20721 ****       128.7500 145.0000  92.0000 Du        
  20722 ****       128.7500 145.0000  92.2500 Du        
  20723 ****       128.7500 145.0000 100.0000 Du        
  20724 ****       128.7500 145.0000 100.2500 Du        
  20725 ****       128.7500 145.0000 100.5000 Du        
  20726 ****       128.7500 145.0000 100.7500 Du        
  20727 ****       128.7500 145.0000 101.0000 Du        
  20728 ****       128.7500 145.0000 101.2500 Du        
  20729 ****       128.7500 145.0000 101.5000 Du        
  20730 ****       128.7500 145.0000 101.7500 Du        
  20731 ****       128.7500 145.2500 100.0000 Du        
  20732 ****       128.7500 145.2500 100.2500 Du        
  20733 ****       128.7500 145.2500 100.5000 Du        
  20734 ****       128.7500 145.2500 100.7500 Du        
  20735 ****       128.7500 145.2500 101.0000 Du        
  20736 ****       128.7500 145.2500 101.2500 Du        
  20737 ****       128.7500 145.2500 101.5000 Du        
  20738 ****       128.7500 145.2500 101.7500 Du        
  20739 ****       128.7500 145.5000 100.2500 Du        
  20740 ****       128.7500 145.5000 100.5000 Du        
  20741 ****       128.7500 145.5000 100.7500 Du        
  20742 ****       128.7500 145.5000 101.0000 Du        
  20743 ****       128.7500 145.5000 101.2500 Du        
  20744 ****       128.7500 145.5000 101.5000 Du        
  20745 ****       128.7500 145.5000 101.7500 Du        
  20746 ****       128.7500 145.7500 100.7500 Du        
  20747 ****       128.7500 145.7500 101.0000 Du        
  20748 ****       128.7500 145.7500 101.2500 Du        
  20749 ****       128.7500 145.7500 101.5000 Du        
  20750 ****       128.7500 145.7500 101.7500 Du        
  20751 ****       128.7500 146.0000 101.2500 Du        
  20752 ****       128.7500 146.0000 101.5000 Du        
  20753 ****       128.7500 146.0000 101.7500 Du        
  20754 ****       128.7500 157.5000 145.7500 Du        
  20755 ****       128.7500 157.5000 146.0000 Du        
  20756 ****       128.7500 157.5000 160.7500 Du        
  20757 ****       128.7500 157.5000 161.0000 Du        
  20758 ****       128.7500 157.5000 161.2500 Du        
  20759 ****       128.7500 157.5000 161.5000 Du        
  20760 ****       128.7500 157.5000 161.7500 Du        
  20761 ****       128.7500 157.5000 162.0000 Du        
  20762 ****       128.7500 157.5000 162.2500 Du        
  20763 ****       128.7500 157.7500 145.7500 Du        
  20764 ****       128.7500 157.7500 146.0000 Du        
  20765 ****       128.7500 157.7500 161.2500 Du        
  20766 ****       128.7500 157.7500 161.5000 Du        
  20767 ****       128.7500 157.7500 161.7500 Du        
  20768 ****       128.7500 157.7500 162.0000 Du        
  20769 ****       128.7500 157.7500 162.2500 Du        
  20770 ****       128.7500 157.7500 162.5000 Du        
  20771 ****       128.7500 158.0000 145.7500 Du        
  20772 ****       128.7500 158.0000 161.7500 Du        
  20773 ****       128.7500 158.0000 162.0000 Du        
  20774 ****       128.7500 158.0000 162.2500 Du        
  20775 ****       128.7500 158.0000 162.5000 Du        
  20776 ****       128.7500 158.2500 162.2500 Du        
  20777 ****       128.7500 158.2500 162.5000 Du        
  20778 ****       129.0000 121.0000 141.0000 Du        
  20779 ****       129.0000 121.0000 141.2500 Du        
  20780 ****       129.0000 121.0000 141.5000 Du        
  20781 ****       129.0000 121.0000 141.7500 Du        
  20782 ****       129.0000 121.0000 142.0000 Du        
  20783 ****       129.0000 121.2500 141.7500 Du        
  20784 ****       129.0000 121.2500 142.0000 Du        
  20785 ****       129.0000 121.5000 104.7500 Du        
  20786 ****       129.0000 121.5000 105.0000 Du        
  20787 ****       129.0000 121.7500 104.7500 Du        
  20788 ****       129.0000 121.7500 105.0000 Du        
  20789 ****       129.0000 121.7500 105.2500 Du        
  20790 ****       129.0000 122.0000 104.5000 Du        
  20791 ****       129.0000 122.0000 104.7500 Du        
  20792 ****       129.0000 122.0000 105.0000 Du        
  20793 ****       129.0000 122.0000 105.2500 Du        
  20794 ****       129.0000 122.0000 105.5000 Du        
  20795 ****       129.0000 122.2500 104.5000 Du        
  20796 ****       129.0000 122.2500 104.7500 Du        
  20797 ****       129.0000 122.2500 105.0000 Du        
  20798 ****       129.0000 122.2500 105.2500 Du        
  20799 ****       129.0000 122.2500 105.5000 Du        
  20800 ****       129.0000 122.5000 104.5000 Du        
  20801 ****       129.0000 122.5000 104.7500 Du        
  20802 ****       129.0000 122.5000 105.0000 Du        
  20803 ****       129.0000 122.5000 105.2500 Du        
  20804 ****       129.0000 122.5000 105.5000 Du        
  20805 ****       129.0000 126.2500  98.2500 Du        
  20806 ****       129.0000 126.2500  98.7500 Du        
  20807 ****       129.0000 126.2500  99.0000 Du        
  20808 ****       129.0000 126.5000  97.5000 Du        
  20809 ****       129.0000 126.5000  97.7500 Du        
  20810 ****       129.0000 126.5000  98.0000 Du        
  20811 ****       129.0000 126.5000  98.2500 Du        
  20812 ****       129.0000 126.5000  98.5000 Du        
  20813 ****       129.0000 126.5000  98.7500 Du        
  20814 ****       129.0000 126.5000  99.0000 Du        
  20815 ****       129.0000 126.5000  99.2500 Du        
  20816 ****       129.0000 126.7500  96.7500 Du        
  20817 ****       129.0000 126.7500  97.0000 Du        
  20818 ****       129.0000 126.7500  97.2500 Du        
  20819 ****       129.0000 126.7500  97.5000 Du        
  20820 ****       129.0000 126.7500  97.7500 Du        
  20821 ****       129.0000 126.7500  98.0000 Du        
  20822 ****       129.0000 126.7500  98.2500 Du        
  20823 ****       129.0000 126.7500  98.5000 Du        
  20824 ****       129.0000 126.7500  98.7500 Du        
  20825 ****       129.0000 126.7500  99.0000 Du        
  20826 ****       129.0000 126.7500  99.2500 Du        
  20827 ****       129.0000 127.0000  96.7500 Du        
  20828 ****       129.0000 127.0000  97.0000 Du        
  20829 ****       129.0000 127.0000  97.2500 Du        
  20830 ****       129.0000 127.0000  97.5000 Du        
  20831 ****       129.0000 127.0000  97.7500 Du        
  20832 ****       129.0000 127.0000  98.0000 Du        
  20833 ****       129.0000 127.0000  98.2500 Du        
  20834 ****       129.0000 127.0000  98.5000 Du        
  20835 ****       129.0000 127.0000  98.7500 Du        
  20836 ****       129.0000 127.0000  99.0000 Du        
  20837 ****       129.0000 127.0000  99.2500 Du        
  20838 ****       129.0000 127.2500  96.7500 Du        
  20839 ****       129.0000 127.2500  97.0000 Du        
  20840 ****       129.0000 127.2500  97.2500 Du        
  20841 ****       129.0000 127.2500  97.5000 Du        
  20842 ****       129.0000 127.2500  97.7500 Du        
  20843 ****       129.0000 127.2500  98.0000 Du        
  20844 ****       129.0000 127.2500  98.2500 Du        
  20845 ****       129.0000 127.2500  98.5000 Du        
  20846 ****       129.0000 127.2500  98.7500 Du        
  20847 ****       129.0000 127.2500  99.0000 Du        
  20848 ****       129.0000 127.2500  99.2500 Du        
  20849 ****       129.0000 127.5000  96.5000 Du        
  20850 ****       129.0000 127.5000  96.7500 Du        
  20851 ****       129.0000 127.5000  97.0000 Du        
  20852 ****       129.0000 127.5000  97.2500 Du        
  20853 ****       129.0000 127.5000  97.5000 Du        
  20854 ****       129.0000 127.5000  97.7500 Du        
  20855 ****       129.0000 127.5000  98.0000 Du        
  20856 ****       129.0000 127.5000  98.2500 Du        
  20857 ****       129.0000 127.5000  98.5000 Du        
  20858 ****       129.0000 127.5000  98.7500 Du        
  20859 ****       129.0000 127.5000  99.0000 Du        
  20860 ****       129.0000 127.5000  99.2500 Du        
  20861 ****       129.0000 127.7500  96.7500 Du        
  20862 ****       129.0000 127.7500  97.0000 Du        
  20863 ****       129.0000 127.7500  97.2500 Du        
  20864 ****       129.0000 127.7500  97.5000 Du        
  20865 ****       129.0000 127.7500  97.7500 Du        
  20866 ****       129.0000 127.7500  98.0000 Du        
  20867 ****       129.0000 127.7500  98.2500 Du        
  20868 ****       129.0000 127.7500  98.5000 Du        
  20869 ****       129.0000 127.7500  98.7500 Du        
  20870 ****       129.0000 127.7500  99.0000 Du        
  20871 ****       129.0000 127.7500  99.2500 Du        
  20872 ****       129.0000 127.7500 164.0000 Du        
  20873 ****       129.0000 127.7500 164.2500 Du        
  20874 ****       129.0000 127.7500 164.5000 Du        
  20875 ****       129.0000 127.7500 164.7500 Du        
  20876 ****       129.0000 127.7500 165.0000 Du        
  20877 ****       129.0000 128.0000  97.0000 Du        
  20878 ****       129.0000 128.0000  97.2500 Du        
  20879 ****       129.0000 128.0000  97.5000 Du        
  20880 ****       129.0000 128.0000  97.7500 Du        
  20881 ****       129.0000 128.0000  98.0000 Du        
  20882 ****       129.0000 128.0000  98.2500 Du        
  20883 ****       129.0000 128.0000  98.5000 Du        
  20884 ****       129.0000 128.0000  98.7500 Du        
  20885 ****       129.0000 128.0000  99.0000 Du        
  20886 ****       129.0000 128.0000 164.0000 Du        
  20887 ****       129.0000 128.0000 164.2500 Du        
  20888 ****       129.0000 128.0000 164.5000 Du        
  20889 ****       129.0000 128.0000 164.7500 Du        
  20890 ****       129.0000 128.0000 165.0000 Du        
  20891 ****       129.0000 132.0000 157.2500 Du        
  20892 ****       129.0000 132.0000 157.5000 Du        
  20893 ****       129.0000 132.2500 157.0000 Du        
  20894 ****       129.0000 132.2500 157.5000 Du        
  20895 ****       129.0000 132.7500 156.7500 Du        
  20896 ****       129.0000 132.7500 157.0000 Du        
  20897 ****       129.0000 132.7500 157.2500 Du        
  20898 ****       129.0000 133.0000 156.7500 Du        
  20899 ****       129.0000 133.0000 157.0000 Du        
  20900 ****       129.0000 133.0000 157.2500 Du        
  20901 ****       129.0000 133.0000 157.5000 Du        
  20902 ****       129.0000 133.2500 156.7500 Du        
  20903 ****       129.0000 133.2500 157.0000 Du        
  20904 ****       129.0000 133.2500 157.2500 Du        
  20905 ****       129.0000 133.2500 157.5000 Du        
  20906 ****       129.0000 133.5000 156.5000 Du        
  20907 ****       129.0000 133.5000 156.7500 Du        
  20908 ****       129.0000 133.5000 157.0000 Du        
  20909 ****       129.0000 133.5000 157.2500 Du        
  20910 ****       129.0000 133.5000 157.5000 Du        
  20911 ****       129.0000 133.7500 156.5000 Du        
  20912 ****       129.0000 133.7500 156.7500 Du        
  20913 ****       129.0000 133.7500 157.0000 Du        
  20914 ****       129.0000 133.7500 157.2500 Du        
  20915 ****       129.0000 133.7500 157.5000 Du        
  20916 ****       129.0000 134.0000 156.7500 Du        
  20917 ****       129.0000 134.0000 157.0000 Du        
  20918 ****       129.0000 134.0000 157.2500 Du        
  20919 ****       129.0000 134.0000 157.5000 Du        
  20920 ****       129.0000 134.0000 157.7500 Du        
  20921 ****       129.0000 134.2500 157.0000 Du        
  20922 ****       129.0000 134.2500 157.2500 Du        
  20923 ****       129.0000 134.2500 157.5000 Du        
  20924 ****       129.0000 134.2500 157.7500 Du        
  20925 ****       129.0000 134.5000 157.2500 Du        
  20926 ****       129.0000 134.5000 157.5000 Du        
  20927 ****       129.0000 139.0000  98.0000 Du        
  20928 ****       129.0000 140.0000 103.7500 Du        
  20929 ****       129.0000 140.2500 103.5000 Du        
  20930 ****       129.0000 140.2500 103.7500 Du        
  20931 ****       129.0000 142.2500 102.0000 Du        
  20932 ****       129.0000 142.2500 102.2500 Du        
  20933 ****       129.0000 142.2500 102.5000 Du        
  20934 ****       129.0000 142.5000 101.7500 Du        
  20935 ****       129.0000 142.5000 102.0000 Du        
  20936 ****       129.0000 142.5000 102.2500 Du        
  20937 ****       129.0000 142.7500 101.0000 Du        
  20938 ****       129.0000 142.7500 101.2500 Du        
  20939 ****       129.0000 142.7500 101.5000 Du        
  20940 ****       129.0000 142.7500 101.7500 Du        
  20941 ****       129.0000 142.7500 102.0000 Du        
  20942 ****       129.0000 142.7500 102.2500 Du        
  20943 ****       129.0000 142.7500 102.5000 Du        
  20944 ****       129.0000 143.0000 101.0000 Du        
  20945 ****       129.0000 143.0000 101.2500 Du        
  20946 ****       129.0000 143.0000 101.5000 Du        
  20947 ****       129.0000 143.0000 101.7500 Du        
  20948 ****       129.0000 143.0000 102.0000 Du        
  20949 ****       129.0000 143.0000 102.2500 Du        
  20950 ****       129.0000 143.0000 102.5000 Du        
  20951 ****       129.0000 143.2500 100.7500 Du        
  20952 ****       129.0000 143.2500 101.0000 Du        
  20953 ****       129.0000 143.2500 101.2500 Du        
  20954 ****       129.0000 143.2500 101.5000 Du        
  20955 ****       129.0000 143.2500 101.7500 Du        
  20956 ****       129.0000 143.2500 102.0000 Du        
  20957 ****       129.0000 143.2500 102.2500 Du        
  20958 ****       129.0000 143.5000  94.5000 Du        
  20959 ****       129.0000 143.5000  94.7500 Du        
  20960 ****       129.0000 143.5000  95.0000 Du        
  20961 ****       129.0000 143.5000  95.2500 Du        
  20962 ****       129.0000 143.5000  95.5000 Du        
  20963 ****       129.0000 143.5000  95.7500 Du        
  20964 ****       129.0000 143.5000  96.0000 Du        
  20965 ****       129.0000 143.5000 100.5000 Du        
  20966 ****       129.0000 143.5000 100.7500 Du        
  20967 ****       129.0000 143.5000 101.0000 Du        
  20968 ****       129.0000 143.5000 101.2500 Du        
  20969 ****       129.0000 143.5000 101.5000 Du        
  20970 ****       129.0000 143.5000 101.7500 Du        
  20971 ****       129.0000 143.5000 102.0000 Du        
  20972 ****       129.0000 143.5000 102.2500 Du        
  20973 ****       129.0000 143.7500  93.7500 Du        
  20974 ****       129.0000 143.7500  94.0000 Du        
  20975 ****       129.0000 143.7500  94.2500 Du        
  20976 ****       129.0000 143.7500  94.5000 Du        
  20977 ****       129.0000 143.7500  94.7500 Du        
  20978 ****       129.0000 143.7500  95.0000 Du        
  20979 ****       129.0000 143.7500  95.2500 Du        
  20980 ****       129.0000 143.7500  95.5000 Du        
  20981 ****       129.0000 143.7500  95.7500 Du        
  20982 ****       129.0000 143.7500 100.0000 Du        
  20983 ****       129.0000 143.7500 100.2500 Du        
  20984 ****       129.0000 143.7500 100.5000 Du        
  20985 ****       129.0000 143.7500 100.7500 Du        
  20986 ****       129.0000 143.7500 101.0000 Du        
  20987 ****       129.0000 143.7500 101.2500 Du        
  20988 ****       129.0000 143.7500 101.5000 Du        
  20989 ****       129.0000 143.7500 101.7500 Du        
  20990 ****       129.0000 143.7500 102.0000 Du        
  20991 ****       129.0000 144.0000  92.2500 Du        
  20992 ****       129.0000 144.0000  92.5000 Du        
  20993 ****       129.0000 144.0000  92.7500 Du        
  20994 ****       129.0000 144.0000  93.0000 Du        
  20995 ****       129.0000 144.0000  93.2500 Du        
  20996 ****       129.0000 144.0000  93.5000 Du        
  20997 ****       129.0000 144.0000  93.7500 Du        
  20998 ****       129.0000 144.0000  94.0000 Du        
  20999 ****       129.0000 144.0000  94.2500 Du        
  21000 ****       129.0000 144.0000  94.5000 Du        
  21001 ****       129.0000 144.0000  94.7500 Du        
  21002 ****       129.0000 144.0000  95.0000 Du        
  21003 ****       129.0000 144.0000  95.2500 Du        
  21004 ****       129.0000 144.0000  95.5000 Du        
  21005 ****       129.0000 144.0000  99.7500 Du        
  21006 ****       129.0000 144.0000 100.0000 Du        
  21007 ****       129.0000 144.0000 100.2500 Du        
  21008 ****       129.0000 144.0000 100.5000 Du        
  21009 ****       129.0000 144.0000 100.7500 Du        
  21010 ****       129.0000 144.0000 101.0000 Du        
  21011 ****       129.0000 144.0000 101.2500 Du        
  21012 ****       129.0000 144.0000 101.5000 Du        
  21013 ****       129.0000 144.0000 101.7500 Du        
  21014 ****       129.0000 144.0000 102.0000 Du        
  21015 ****       129.0000 144.2500  91.7500 Du        
  21016 ****       129.0000 144.2500  92.0000 Du        
  21017 ****       129.0000 144.2500  92.2500 Du        
  21018 ****       129.0000 144.2500  92.5000 Du        
  21019 ****       129.0000 144.2500  92.7500 Du        
  21020 ****       129.0000 144.2500  93.0000 Du        
  21021 ****       129.0000 144.2500  93.2500 Du        
  21022 ****       129.0000 144.2500  93.5000 Du        
  21023 ****       129.0000 144.2500  99.7500 Du        
  21024 ****       129.0000 144.2500 100.0000 Du        
  21025 ****       129.0000 144.2500 100.2500 Du        
  21026 ****       129.0000 144.2500 100.5000 Du        
  21027 ****       129.0000 144.2500 100.7500 Du        
  21028 ****       129.0000 144.2500 101.0000 Du        
  21029 ****       129.0000 144.2500 101.2500 Du        
  21030 ****       129.0000 144.2500 101.5000 Du        
  21031 ****       129.0000 144.2500 101.7500 Du        
  21032 ****       129.0000 144.2500 102.0000 Du        
  21033 ****       129.0000 144.5000  91.2500 Du        
  21034 ****       129.0000 144.5000  91.5000 Du        
  21035 ****       129.0000 144.5000  91.7500 Du        
  21036 ****       129.0000 144.5000  92.0000 Du        
  21037 ****       129.0000 144.5000  92.2500 Du        
  21038 ****       129.0000 144.5000  92.5000 Du        
  21039 ****       129.0000 144.5000  92.7500 Du        
  21040 ****       129.0000 144.5000  93.0000 Du        
  21041 ****       129.0000 144.5000  93.2500 Du        
  21042 ****       129.0000 144.5000  99.7500 Du        
  21043 ****       129.0000 144.5000 100.0000 Du        
  21044 ****       129.0000 144.5000 100.2500 Du        
  21045 ****       129.0000 144.5000 100.5000 Du        
  21046 ****       129.0000 144.5000 100.7500 Du        
  21047 ****       129.0000 144.5000 101.0000 Du        
  21048 ****       129.0000 144.5000 101.2500 Du        
  21049 ****       129.0000 144.5000 101.5000 Du        
  21050 ****       129.0000 144.5000 101.7500 Du        
  21051 ****       129.0000 144.7500  91.2500 Du        
  21052 ****       129.0000 144.7500  91.5000 Du        
  21053 ****       129.0000 144.7500  91.7500 Du        
  21054 ****       129.0000 144.7500  92.0000 Du        
  21055 ****       129.0000 144.7500  92.2500 Du        
  21056 ****       129.0000 144.7500  92.5000 Du        
  21057 ****       129.0000 144.7500  92.7500 Du        
  21058 ****       129.0000 144.7500  99.7500 Du        
  21059 ****       129.0000 144.7500 100.0000 Du        
  21060 ****       129.0000 144.7500 100.2500 Du        
  21061 ****       129.0000 144.7500 100.5000 Du        
  21062 ****       129.0000 144.7500 100.7500 Du        
  21063 ****       129.0000 144.7500 101.0000 Du        
  21064 ****       129.0000 144.7500 101.2500 Du        
  21065 ****       129.0000 144.7500 101.5000 Du        
  21066 ****       129.0000 144.7500 101.7500 Du        
  21067 ****       129.0000 145.0000  91.2500 Du        
  21068 ****       129.0000 145.0000  91.5000 Du        
  21069 ****       129.0000 145.0000  91.7500 Du        
  21070 ****       129.0000 145.0000  92.0000 Du        
  21071 ****       129.0000 145.0000  92.2500 Du        
  21072 ****       129.0000 145.0000  92.5000 Du        
  21073 ****       129.0000 145.0000 100.0000 Du        
  21074 ****       129.0000 145.0000 100.2500 Du        
  21075 ****       129.0000 145.0000 100.5000 Du        
  21076 ****       129.0000 145.0000 100.7500 Du        
  21077 ****       129.0000 145.0000 101.0000 Du        
  21078 ****       129.0000 145.0000 101.2500 Du        
  21079 ****       129.0000 145.0000 101.5000 Du        
  21080 ****       129.0000 145.0000 101.7500 Du        
  21081 ****       129.0000 145.2500  91.5000 Du        
  21082 ****       129.0000 145.2500  91.7500 Du        
  21083 ****       129.0000 145.2500  92.0000 Du        
  21084 ****       129.0000 145.2500 100.0000 Du        
  21085 ****       129.0000 145.2500 100.2500 Du        
  21086 ****       129.0000 145.2500 100.5000 Du        
  21087 ****       129.0000 145.2500 100.7500 Du        
  21088 ****       129.0000 145.2500 101.0000 Du        
  21089 ****       129.0000 145.2500 101.2500 Du        
  21090 ****       129.0000 145.2500 101.5000 Du        
  21091 ****       129.0000 145.2500 101.7500 Du        
  21092 ****       129.0000 145.2500 127.0000 Du        
  21093 ****       129.0000 145.2500 127.2500 Du        
  21094 ****       129.0000 145.5000 100.2500 Du        
  21095 ****       129.0000 145.5000 100.5000 Du        
  21096 ****       129.0000 145.5000 100.7500 Du        
  21097 ****       129.0000 145.5000 101.0000 Du        
  21098 ****       129.0000 145.5000 101.2500 Du        
  21099 ****       129.0000 145.5000 101.5000 Du        
  21100 ****       129.0000 145.5000 101.7500 Du        
  21101 ****       129.0000 145.7500 100.5000 Du        
  21102 ****       129.0000 145.7500 100.7500 Du        
  21103 ****       129.0000 145.7500 101.0000 Du        
  21104 ****       129.0000 145.7500 101.2500 Du        
  21105 ****       129.0000 145.7500 101.5000 Du        
  21106 ****       129.0000 145.7500 101.7500 Du        
  21107 ****       129.0000 146.0000 101.2500 Du        
  21108 ****       129.0000 146.0000 101.5000 Du        
  21109 ****       129.0000 146.0000 101.7500 Du        
  21110 ****       129.0000 157.2500 161.5000 Du        
  21111 ****       129.0000 157.2500 161.7500 Du        
  21112 ****       129.0000 157.2500 162.0000 Du        
  21113 ****       129.0000 157.5000 160.7500 Du        
  21114 ****       129.0000 157.5000 161.0000 Du        
  21115 ****       129.0000 157.5000 161.2500 Du        
  21116 ****       129.0000 157.5000 161.5000 Du        
  21117 ****       129.0000 157.5000 161.7500 Du        
  21118 ****       129.0000 157.5000 162.0000 Du        
  21119 ****       129.0000 157.5000 162.2500 Du        
  21120 ****       129.0000 157.7500 145.7500 Du        
  21121 ****       129.0000 157.7500 146.0000 Du        
  21122 ****       129.0000 157.7500 160.7500 Du        
  21123 ****       129.0000 157.7500 161.0000 Du        
  21124 ****       129.0000 157.7500 161.2500 Du        
  21125 ****       129.0000 157.7500 161.5000 Du        
  21126 ****       129.0000 157.7500 161.7500 Du        
  21127 ****       129.0000 157.7500 162.0000 Du        
  21128 ****       129.0000 157.7500 162.2500 Du        
  21129 ****       129.0000 157.7500 162.5000 Du        
  21130 ****       129.0000 158.0000 145.7500 Du        
  21131 ****       129.0000 158.0000 146.0000 Du        
  21132 ****       129.0000 158.0000 161.2500 Du        
  21133 ****       129.0000 158.0000 161.5000 Du        
  21134 ****       129.0000 158.0000 161.7500 Du        
  21135 ****       129.0000 158.0000 162.0000 Du        
  21136 ****       129.0000 158.0000 162.2500 Du        
  21137 ****       129.0000 158.0000 162.5000 Du        
  21138 ****       129.0000 158.2500 161.7500 Du        
  21139 ****       129.0000 158.2500 162.0000 Du        
  21140 ****       129.0000 158.2500 162.2500 Du        
  21141 ****       129.0000 158.2500 162.5000 Du        
  21142 ****       129.0000 158.5000 162.2500 Du        
  21143 ****       129.0000 158.5000 162.5000 Du        
  21144 ****       129.2500 121.0000 141.0000 Du        
  21145 ****       129.2500 121.0000 141.2500 Du        
  21146 ****       129.2500 121.0000 141.5000 Du        
  21147 ****       129.2500 121.0000 141.7500 Du        
  21148 ****       129.2500 121.0000 142.0000 Du        
  21149 ****       129.2500 121.2500 141.2500 Du        
  21150 ****       129.2500 121.2500 141.5000 Du        
  21151 ****       129.2500 121.2500 141.7500 Du        
  21152 ****       129.2500 121.2500 142.0000 Du        
  21153 ****       129.2500 126.0000  99.0000 Du        
  21154 ****       129.2500 126.2500  98.2500 Du        
  21155 ****       129.2500 126.2500  98.7500 Du        
  21156 ****       129.2500 126.2500  99.0000 Du        
  21157 ****       129.2500 126.5000  97.2500 Du        
  21158 ****       129.2500 126.5000  97.5000 Du        
  21159 ****       129.2500 126.5000  97.7500 Du        
  21160 ****       129.2500 126.5000  98.0000 Du        
  21161 ****       129.2500 126.5000  98.2500 Du        
  21162 ****       129.2500 126.5000  98.5000 Du        
  21163 ****       129.2500 126.5000  98.7500 Du        
  21164 ****       129.2500 126.5000  99.0000 Du        
  21165 ****       129.2500 126.5000  99.2500 Du        
  21166 ****       129.2500 126.7500  96.7500 Du        
  21167 ****       129.2500 126.7500  97.0000 Du        
  21168 ****       129.2500 126.7500  97.2500 Du        
  21169 ****       129.2500 126.7500  97.5000 Du        
  21170 ****       129.2500 126.7500  97.7500 Du        
  21171 ****       129.2500 126.7500  98.0000 Du        
  21172 ****       129.2500 126.7500  98.2500 Du        
  21173 ****       129.2500 126.7500  98.5000 Du        
  21174 ****       129.2500 126.7500  98.7500 Du        
  21175 ****       129.2500 126.7500  99.0000 Du        
  21176 ****       129.2500 126.7500  99.2500 Du        
  21177 ****       129.2500 127.0000  96.7500 Du        
  21178 ****       129.2500 127.0000  97.0000 Du        
  21179 ****       129.2500 127.0000  97.2500 Du        
  21180 ****       129.2500 127.0000  97.5000 Du        
  21181 ****       129.2500 127.0000  97.7500 Du        
  21182 ****       129.2500 127.0000  98.0000 Du        
  21183 ****       129.2500 127.0000  98.2500 Du        
  21184 ****       129.2500 127.0000  98.5000 Du        
  21185 ****       129.2500 127.0000  98.7500 Du        
  21186 ****       129.2500 127.0000  99.0000 Du        
  21187 ****       129.2500 127.0000  99.2500 Du        
  21188 ****       129.2500 127.2500  96.7500 Du        
  21189 ****       129.2500 127.2500  97.0000 Du        
  21190 ****       129.2500 127.2500  97.2500 Du        
  21191 ****       129.2500 127.2500  97.5000 Du        
  21192 ****       129.2500 127.2500  97.7500 Du        
  21193 ****       129.2500 127.2500  98.0000 Du        
  21194 ****       129.2500 127.2500  98.2500 Du        
  21195 ****       129.2500 127.2500  98.5000 Du        
  21196 ****       129.2500 127.2500  98.7500 Du        
  21197 ****       129.2500 127.2500  99.0000 Du        
  21198 ****       129.2500 127.2500  99.2500 Du        
  21199 ****       129.2500 127.2500 164.7500 Du        
  21200 ****       129.2500 127.2500 165.0000 Du        
  21201 ****       129.2500 127.2500 165.2500 Du        
  21202 ****       129.2500 127.2500 165.5000 Du        
  21203 ****       129.2500 127.5000  96.7500 Du        
  21204 ****       129.2500 127.5000  97.0000 Du        
  21205 ****       129.2500 127.5000  97.2500 Du        
  21206 ****       129.2500 127.5000  97.5000 Du        
  21207 ****       129.2500 127.5000  97.7500 Du        
  21208 ****       129.2500 127.5000  98.0000 Du        
  21209 ****       129.2500 127.5000  98.2500 Du        
  21210 ****       129.2500 127.5000  98.5000 Du        
  21211 ****       129.2500 127.5000  98.7500 Du        
  21212 ****       129.2500 127.5000  99.0000 Du        
  21213 ****       129.2500 127.5000  99.2500 Du        
  21214 ****       129.2500 127.5000  99.5000 Du        
  21215 ****       129.2500 127.5000 164.5000 Du        
  21216 ****       129.2500 127.5000 164.7500 Du        
  21217 ****       129.2500 127.5000 165.0000 Du        
  21218 ****       129.2500 127.5000 165.2500 Du        
  21219 ****       129.2500 127.7500  96.7500 Du        
  21220 ****       129.2500 127.7500  97.0000 Du        
  21221 ****       129.2500 127.7500  97.2500 Du        
  21222 ****       129.2500 127.7500  97.5000 Du        
  21223 ****       129.2500 127.7500  97.7500 Du        
  21224 ****       129.2500 127.7500  98.0000 Du        
  21225 ****       129.2500 127.7500  98.2500 Du        
  21226 ****       129.2500 127.7500  98.5000 Du        
  21227 ****       129.2500 127.7500  98.7500 Du        
  21228 ****       129.2500 127.7500  99.0000 Du        
  21229 ****       129.2500 127.7500  99.2500 Du        
  21230 ****       129.2500 127.7500 164.2500 Du        
  21231 ****       129.2500 127.7500 164.5000 Du        
  21232 ****       129.2500 127.7500 164.7500 Du        
  21233 ****       129.2500 127.7500 165.0000 Du        
  21234 ****       129.2500 127.7500 165.2500 Du        
  21235 ****       129.2500 128.0000  97.0000 Du        
  21236 ****       129.2500 128.0000  97.2500 Du        
  21237 ****       129.2500 128.0000  97.5000 Du        
  21238 ****       129.2500 128.0000  97.7500 Du        
  21239 ****       129.2500 128.0000  98.0000 Du        
  21240 ****       129.2500 128.0000  98.2500 Du        
  21241 ****       129.2500 128.0000  98.5000 Du        
  21242 ****       129.2500 128.0000  98.7500 Du        
  21243 ****       129.2500 128.0000  99.0000 Du        
  21244 ****       129.2500 128.0000 164.5000 Du        
  21245 ****       129.2500 128.0000 164.7500 Du        
  21246 ****       129.2500 128.0000 165.0000 Du        
  21247 ****       129.2500 128.0000 165.2500 Du        
  21248 ****       129.2500 132.7500 156.7500 Du        
  21249 ****       129.2500 133.0000 156.5000 Du        
  21250 ****       129.2500 133.0000 156.7500 Du        
  21251 ****       129.2500 133.0000 157.0000 Du        
  21252 ****       129.2500 133.2500 156.5000 Du        
  21253 ****       129.2500 133.2500 156.7500 Du        
  21254 ****       129.2500 133.2500 157.0000 Du        
  21255 ****       129.2500 133.5000 156.5000 Du        
  21256 ****       129.2500 133.5000 156.7500 Du        
  21257 ****       129.2500 133.5000 157.0000 Du        
  21258 ****       129.2500 133.5000 157.2500 Du        
  21259 ****       129.2500 133.7500 156.5000 Du        
  21260 ****       129.2500 133.7500 156.7500 Du        
  21261 ****       129.2500 133.7500 157.0000 Du        
  21262 ****       129.2500 133.7500 157.2500 Du        
  21263 ****       129.2500 134.0000 156.7500 Du        
  21264 ****       129.2500 134.0000 157.0000 Du        
  21265 ****       129.2500 134.0000 157.2500 Du        
  21266 ****       129.2500 134.0000 157.5000 Du        
  21267 ****       129.2500 134.2500 157.0000 Du        
  21268 ****       129.2500 134.2500 157.2500 Du        
  21269 ****       129.2500 134.2500 157.5000 Du        
  21270 ****       129.2500 139.7500 103.7500 Du        
  21271 ****       129.2500 139.7500 104.0000 Du        
  21272 ****       129.2500 139.7500 104.2500 Du        
  21273 ****       129.2500 139.7500 104.5000 Du        
  21274 ****       129.2500 140.0000 103.5000 Du        
  21275 ****       129.2500 140.0000 103.7500 Du        
  21276 ****       129.2500 140.0000 104.0000 Du        
  21277 ****       129.2500 140.0000 104.2500 Du        
  21278 ****       129.2500 140.2500 103.2500 Du        
  21279 ****       129.2500 140.2500 103.5000 Du        
  21280 ****       129.2500 140.2500 103.7500 Du        
  21281 ****       129.2500 140.2500 104.0000 Du        
  21282 ****       129.2500 140.2500 104.2500 Du        
  21283 ****       129.2500 140.5000 103.2500 Du        
  21284 ****       129.2500 140.5000 103.5000 Du        
  21285 ****       129.2500 140.5000 103.7500 Du        
  21286 ****       129.2500 140.5000 104.0000 Du        
  21287 ****       129.2500 140.7500 103.0000 Du        
  21288 ****       129.2500 140.7500 103.2500 Du        
  21289 ****       129.2500 140.7500 103.5000 Du        
  21290 ****       129.2500 140.7500 103.7500 Du        
  21291 ****       129.2500 140.7500 104.0000 Du        
  21292 ****       129.2500 141.0000 103.0000 Du        
  21293 ****       129.2500 141.0000 103.2500 Du        
  21294 ****       129.2500 141.0000 103.5000 Du        
  21295 ****       129.2500 141.0000 103.7500 Du        
  21296 ****       129.2500 141.2500 103.0000 Du        
  21297 ****       129.2500 141.2500 103.2500 Du        
  21298 ****       129.2500 141.2500 103.5000 Du        
  21299 ****       129.2500 141.2500 103.7500 Du        
  21300 ****       129.2500 141.5000 102.7500 Du        
  21301 ****       129.2500 141.5000 103.0000 Du        
  21302 ****       129.2500 141.5000 103.2500 Du        
  21303 ****       129.2500 141.5000 103.5000 Du        
  21304 ****       129.2500 141.7500 102.2500 Du        
  21305 ****       129.2500 141.7500 102.5000 Du        
  21306 ****       129.2500 141.7500 102.7500 Du        
  21307 ****       129.2500 141.7500 103.0000 Du        
  21308 ****       129.2500 141.7500 103.2500 Du        
  21309 ****       129.2500 142.0000 102.0000 Du        
  21310 ****       129.2500 142.0000 102.2500 Du        
  21311 ****       129.2500 142.0000 102.5000 Du        
  21312 ****       129.2500 142.0000 102.7500 Du        
  21313 ****       129.2500 142.0000 103.0000 Du        
  21314 ****       129.2500 142.0000 103.2500 Du        
  21315 ****       129.2500 142.2500 101.7500 Du        
  21316 ****       129.2500 142.2500 102.0000 Du        
  21317 ****       129.2500 142.2500 102.2500 Du        
  21318 ****       129.2500 142.2500 102.5000 Du        
  21319 ****       129.2500 142.2500 102.7500 Du        
  21320 ****       129.2500 142.2500 103.0000 Du        
  21321 ****       129.2500 142.2500 103.2500 Du        
  21322 ****       129.2500 142.5000 101.7500 Du        
  21323 ****       129.2500 142.5000 102.0000 Du        
  21324 ****       129.2500 142.5000 102.2500 Du        
  21325 ****       129.2500 142.5000 102.5000 Du        
  21326 ****       129.2500 142.5000 102.7500 Du        
  21327 ****       129.2500 142.5000 103.0000 Du        
  21328 ****       129.2500 142.7500 101.0000 Du        
  21329 ****       129.2500 142.7500 101.2500 Du        
  21330 ****       129.2500 142.7500 101.5000 Du        
  21331 ****       129.2500 142.7500 101.7500 Du        
  21332 ****       129.2500 142.7500 102.0000 Du        
  21333 ****       129.2500 142.7500 102.2500 Du        
  21334 ****       129.2500 142.7500 102.5000 Du        
  21335 ****       129.2500 142.7500 102.7500 Du        
  21336 ****       129.2500 143.0000 101.0000 Du        
  21337 ****       129.2500 143.0000 101.2500 Du        
  21338 ****       129.2500 143.0000 101.5000 Du        
  21339 ****       129.2500 143.0000 101.7500 Du        
  21340 ****       129.2500 143.0000 102.0000 Du        
  21341 ****       129.2500 143.0000 102.2500 Du        
  21342 ****       129.2500 143.0000 102.5000 Du        
  21343 ****       129.2500 143.0000 102.7500 Du        
  21344 ****       129.2500 143.2500 101.0000 Du        
  21345 ****       129.2500 143.2500 101.2500 Du        
  21346 ****       129.2500 143.2500 101.5000 Du        
  21347 ****       129.2500 143.2500 101.7500 Du        
  21348 ****       129.2500 143.2500 102.0000 Du        
  21349 ****       129.2500 143.2500 102.2500 Du        
  21350 ****       129.2500 143.2500 102.5000 Du        
  21351 ****       129.2500 143.5000  94.7500 Du        
  21352 ****       129.2500 143.5000  95.0000 Du        
  21353 ****       129.2500 143.5000  95.2500 Du        
  21354 ****       129.2500 143.5000  95.5000 Du        
  21355 ****       129.2500 143.5000  95.7500 Du        
  21356 ****       129.2500 143.5000 100.5000 Du        
  21357 ****       129.2500 143.5000 100.7500 Du        
  21358 ****       129.2500 143.5000 101.0000 Du        
  21359 ****       129.2500 143.5000 101.2500 Du        
  21360 ****       129.2500 143.5000 101.5000 Du        
  21361 ****       129.2500 143.5000 101.7500 Du        
  21362 ****       129.2500 143.5000 102.0000 Du        
  21363 ****       129.2500 143.5000 102.2500 Du        
  21364 ****       129.2500 143.7500  94.5000 Du        
  21365 ****       129.2500 143.7500  94.7500 Du        
  21366 ****       129.2500 143.7500  95.0000 Du        
  21367 ****       129.2500 143.7500  95.2500 Du        
  21368 ****       129.2500 143.7500  95.5000 Du        
  21369 ****       129.2500 143.7500  99.7500 Du        
  21370 ****       129.2500 143.7500 100.0000 Du        
  21371 ****       129.2500 143.7500 100.2500 Du        
  21372 ****       129.2500 143.7500 100.5000 Du        
  21373 ****       129.2500 143.7500 100.7500 Du        
  21374 ****       129.2500 143.7500 101.0000 Du        
  21375 ****       129.2500 143.7500 101.2500 Du        
  21376 ****       129.2500 143.7500 101.5000 Du        
  21377 ****       129.2500 143.7500 101.7500 Du        
  21378 ****       129.2500 143.7500 102.0000 Du        
  21379 ****       129.2500 144.0000  99.7500 Du        
  21380 ****       129.2500 144.0000 100.0000 Du        
  21381 ****       129.2500 144.0000 100.2500 Du        
  21382 ****       129.2500 144.0000 100.5000 Du        
  21383 ****       129.2500 144.0000 100.7500 Du        
  21384 ****       129.2500 144.0000 101.0000 Du        
  21385 ****       129.2500 144.0000 101.2500 Du        
  21386 ****       129.2500 144.0000 101.5000 Du        
  21387 ****       129.2500 144.0000 101.7500 Du        
  21388 ****       129.2500 144.0000 102.0000 Du        
  21389 ****       129.2500 144.2500  92.0000 Du        
  21390 ****       129.2500 144.2500  99.7500 Du        
  21391 ****       129.2500 144.2500 100.0000 Du        
  21392 ****       129.2500 144.2500 100.2500 Du        
  21393 ****       129.2500 144.2500 100.5000 Du        
  21394 ****       129.2500 144.2500 100.7500 Du        
  21395 ****       129.2500 144.2500 101.0000 Du        
  21396 ****       129.2500 144.2500 101.2500 Du        
  21397 ****       129.2500 144.2500 101.5000 Du        
  21398 ****       129.2500 144.2500 101.7500 Du        
  21399 ****       129.2500 144.2500 102.0000 Du        
  21400 ****       129.2500 144.5000  91.5000 Du        
  21401 ****       129.2500 144.5000  91.7500 Du        
  21402 ****       129.2500 144.5000  92.0000 Du        
  21403 ****       129.2500 144.5000  92.2500 Du        
  21404 ****       129.2500 144.5000  92.5000 Du        
  21405 ****       129.2500 144.5000  92.7500 Du        
  21406 ****       129.2500 144.5000  99.7500 Du        
  21407 ****       129.2500 144.5000 100.0000 Du        
  21408 ****       129.2500 144.5000 100.2500 Du        
  21409 ****       129.2500 144.5000 100.5000 Du        
  21410 ****       129.2500 144.5000 100.7500 Du        
  21411 ****       129.2500 144.5000 101.0000 Du        
  21412 ****       129.2500 144.5000 101.2500 Du        
  21413 ****       129.2500 144.5000 101.5000 Du        
  21414 ****       129.2500 144.5000 101.7500 Du        
  21415 ****       129.2500 144.7500  91.2500 Du        
  21416 ****       129.2500 144.7500  91.5000 Du        
  21417 ****       129.2500 144.7500  91.7500 Du        
  21418 ****       129.2500 144.7500  92.0000 Du        
  21419 ****       129.2500 144.7500  92.2500 Du        
  21420 ****       129.2500 144.7500  92.5000 Du        
  21421 ****       129.2500 144.7500  99.7500 Du        
  21422 ****       129.2500 144.7500 100.0000 Du        
  21423 ****       129.2500 144.7500 100.2500 Du        
  21424 ****       129.2500 144.7500 100.5000 Du        
  21425 ****       129.2500 144.7500 100.7500 Du        
  21426 ****       129.2500 144.7500 101.0000 Du        
  21427 ****       129.2500 144.7500 101.2500 Du        
  21428 ****       129.2500 144.7500 101.5000 Du        
  21429 ****       129.2500 144.7500 101.7500 Du        
  21430 ****       129.2500 145.0000  91.2500 Du        
  21431 ****       129.2500 145.0000  91.5000 Du        
  21432 ****       129.2500 145.0000  91.7500 Du        
  21433 ****       129.2500 145.0000  92.0000 Du        
  21434 ****       129.2500 145.0000  92.2500 Du        
  21435 ****       129.2500 145.0000 100.0000 Du        
  21436 ****       129.2500 145.0000 100.2500 Du        
  21437 ****       129.2500 145.0000 100.5000 Du        
  21438 ****       129.2500 145.0000 100.7500 Du        
  21439 ****       129.2500 145.0000 101.0000 Du        
  21440 ****       129.2500 145.0000 101.2500 Du        
  21441 ****       129.2500 145.0000 101.5000 Du        
  21442 ****       129.2500 145.0000 101.7500 Du        
  21443 ****       129.2500 145.2500  91.5000 Du        
  21444 ****       129.2500 145.2500  91.7500 Du        
  21445 ****       129.2500 145.2500 100.0000 Du        
  21446 ****       129.2500 145.2500 100.2500 Du        
  21447 ****       129.2500 145.2500 100.5000 Du        
  21448 ****       129.2500 145.2500 100.7500 Du        
  21449 ****       129.2500 145.2500 101.0000 Du        
  21450 ****       129.2500 145.2500 101.2500 Du        
  21451 ****       129.2500 145.2500 101.5000 Du        
  21452 ****       129.2500 145.2500 101.7500 Du        
  21453 ****       129.2500 145.2500 126.7500 Du        
  21454 ****       129.2500 145.2500 127.0000 Du        
  21455 ****       129.2500 145.2500 127.2500 Du        
  21456 ****       129.2500 145.5000 100.2500 Du        
  21457 ****       129.2500 145.5000 100.5000 Du        
  21458 ****       129.2500 145.5000 100.7500 Du        
  21459 ****       129.2500 145.5000 101.0000 Du        
  21460 ****       129.2500 145.5000 101.2500 Du        
  21461 ****       129.2500 145.5000 101.5000 Du        
  21462 ****       129.2500 145.5000 101.7500 Du        
  21463 ****       129.2500 145.5000 126.7500 Du        
  21464 ****       129.2500 145.7500 100.5000 Du        
  21465 ****       129.2500 145.7500 100.7500 Du        
  21466 ****       129.2500 145.7500 101.0000 Du        
  21467 ****       129.2500 145.7500 101.2500 Du        
  21468 ****       129.2500 145.7500 101.5000 Du        
  21469 ****       129.2500 145.7500 101.7500 Du        
  21470 ****       129.2500 145.7500 126.5000 Du        
  21471 ****       129.2500 145.7500 126.7500 Du        
  21472 ****       129.2500 146.0000 101.2500 Du        
  21473 ****       129.2500 146.0000 101.5000 Du        
  21474 ****       129.2500 146.0000 101.7500 Du        
  21475 ****       129.2500 157.2500 161.7500 Du        
  21476 ****       129.2500 157.2500 162.0000 Du        
  21477 ****       129.2500 157.5000 161.0000 Du        
  21478 ****       129.2500 157.5000 161.2500 Du        
  21479 ****       129.2500 157.5000 161.5000 Du        
  21480 ****       129.2500 157.5000 161.7500 Du        
  21481 ****       129.2500 157.5000 162.0000 Du        
  21482 ****       129.2500 157.5000 162.2500 Du        
  21483 ****       129.2500 157.7500 160.7500 Du        
  21484 ****       129.2500 157.7500 161.0000 Du        
  21485 ****       129.2500 157.7500 161.2500 Du        
  21486 ****       129.2500 157.7500 161.5000 Du        
  21487 ****       129.2500 157.7500 161.7500 Du        
  21488 ****       129.2500 157.7500 162.0000 Du        
  21489 ****       129.2500 157.7500 162.2500 Du        
  21490 ****       129.2500 157.7500 162.5000 Du        
  21491 ****       129.2500 158.0000 161.0000 Du        
  21492 ****       129.2500 158.0000 161.2500 Du        
  21493 ****       129.2500 158.0000 161.5000 Du        
  21494 ****       129.2500 158.0000 161.7500 Du        
  21495 ****       129.2500 158.0000 162.0000 Du        
  21496 ****       129.2500 158.0000 162.2500 Du        
  21497 ****       129.2500 158.0000 162.5000 Du        
  21498 ****       129.2500 158.2500 161.5000 Du        
  21499 ****       129.2500 158.2500 161.7500 Du        
  21500 ****       129.2500 158.2500 162.0000 Du        
  21501 ****       129.2500 158.2500 162.2500 Du        
  21502 ****       129.2500 158.2500 162.5000 Du        
  21503 ****       129.2500 158.5000 162.0000 Du        
  21504 ****       129.2500 158.5000 162.2500 Du        
  21505 ****       129.2500 158.5000 162.5000 Du        
  21506 ****       129.2500 158.7500 162.5000 Du        
  21507 ****       129.5000 121.0000 141.0000 Du        
  21508 ****       129.5000 121.0000 141.2500 Du        
  21509 ****       129.5000 121.0000 141.5000 Du        
  21510 ****       129.5000 121.0000 141.7500 Du        
  21511 ****       129.5000 121.0000 142.0000 Du        
  21512 ****       129.5000 121.0000 142.2500 Du        
  21513 ****       129.5000 121.2500 141.2500 Du        
  21514 ****       129.5000 121.2500 141.5000 Du        
  21515 ****       129.5000 121.2500 141.7500 Du        
  21516 ****       129.5000 121.2500 142.0000 Du        
  21517 ****       129.5000 121.2500 142.2500 Du        
  21518 ****       129.5000 121.5000 141.2500 Du        
  21519 ****       129.5000 121.5000 141.5000 Du        
  21520 ****       129.5000 121.5000 141.7500 Du        
  21521 ****       129.5000 121.5000 142.0000 Du        
  21522 ****       129.5000 121.5000 142.2500 Du        
  21523 ****       129.5000 121.5000 142.5000 Du        
  21524 ****       129.5000 121.5000 142.7500 Du        
  21525 ****       129.5000 121.7500 141.7500 Du        
  21526 ****       129.5000 121.7500 142.0000 Du        
  21527 ****       129.5000 121.7500 142.7500 Du        
  21528 ****       129.5000 121.7500 143.0000 Du        
  21529 ****       129.5000 126.0000  98.7500 Du        
  21530 ****       129.5000 126.0000  99.0000 Du        
  21531 ****       129.5000 126.0000  99.2500 Du        
  21532 ****       129.5000 126.2500  98.5000 Du        
  21533 ****       129.5000 126.2500  98.7500 Du        
  21534 ****       129.5000 126.2500  99.0000 Du        
  21535 ****       129.5000 126.2500  99.2500 Du        
  21536 ****       129.5000 126.5000  97.2500 Du        
  21537 ****       129.5000 126.5000  97.5000 Du        
  21538 ****       129.5000 126.5000  97.7500 Du        
  21539 ****       129.5000 126.5000  98.0000 Du        
  21540 ****       129.5000 126.5000  98.2500 Du        
  21541 ****       129.5000 126.5000  98.5000 Du        
  21542 ****       129.5000 126.5000  98.7500 Du        
  21543 ****       129.5000 126.5000  99.0000 Du        
  21544 ****       129.5000 126.5000  99.2500 Du        
  21545 ****       129.5000 126.7500  96.7500 Du        
  21546 ****       129.5000 126.7500  97.0000 Du        
  21547 ****       129.5000 126.7500  97.2500 Du        
  21548 ****       129.5000 126.7500  97.5000 Du        
  21549 ****       129.5000 126.7500  97.7500 Du        
  21550 ****       129.5000 126.7500  98.0000 Du        
  21551 ****       129.5000 126.7500  98.2500 Du        
  21552 ****       129.5000 126.7500  98.5000 Du        
  21553 ****       129.5000 126.7500  98.7500 Du        
  21554 ****       129.5000 126.7500  99.0000 Du        
  21555 ****       129.5000 126.7500  99.2500 Du        
  21556 ****       129.5000 127.0000  96.7500 Du        
  21557 ****       129.5000 127.0000  97.0000 Du        
  21558 ****       129.5000 127.0000  97.2500 Du        
  21559 ****       129.5000 127.0000  97.5000 Du        
  21560 ****       129.5000 127.0000  97.7500 Du        
  21561 ****       129.5000 127.0000  98.0000 Du        
  21562 ****       129.5000 127.0000  98.2500 Du        
  21563 ****       129.5000 127.0000  98.5000 Du        
  21564 ****       129.5000 127.0000  98.7500 Du        
  21565 ****       129.5000 127.0000  99.0000 Du        
  21566 ****       129.5000 127.0000  99.2500 Du        
  21567 ****       129.5000 127.0000 165.0000 Du        
  21568 ****       129.5000 127.0000 165.2500 Du        
  21569 ****       129.5000 127.2500  96.7500 Du        
  21570 ****       129.5000 127.2500  97.0000 Du        
  21571 ****       129.5000 127.2500  97.2500 Du        
  21572 ****       129.5000 127.2500  97.5000 Du        
  21573 ****       129.5000 127.2500  97.7500 Du        
  21574 ****       129.5000 127.2500  98.0000 Du        
  21575 ****       129.5000 127.2500  98.2500 Du        
  21576 ****       129.5000 127.2500  98.5000 Du        
  21577 ****       129.5000 127.2500  98.7500 Du        
  21578 ****       129.5000 127.2500  99.0000 Du        
  21579 ****       129.5000 127.2500  99.2500 Du        
  21580 ****       129.5000 127.2500 164.7500 Du        
  21581 ****       129.5000 127.2500 165.0000 Du        
  21582 ****       129.5000 127.2500 165.2500 Du        
  21583 ****       129.5000 127.2500 165.5000 Du        
  21584 ****       129.5000 127.2500 165.7500 Du        
  21585 ****       129.5000 127.5000  96.7500 Du        
  21586 ****       129.5000 127.5000  97.0000 Du        
  21587 ****       129.5000 127.5000  97.2500 Du        
  21588 ****       129.5000 127.5000  97.5000 Du        
  21589 ****       129.5000 127.5000  97.7500 Du        
  21590 ****       129.5000 127.5000  98.0000 Du        
  21591 ****       129.5000 127.5000  98.2500 Du        
  21592 ****       129.5000 127.5000  98.5000 Du        
  21593 ****       129.5000 127.5000  98.7500 Du        
  21594 ****       129.5000 127.5000  99.0000 Du        
  21595 ****       129.5000 127.5000  99.2500 Du        
  21596 ****       129.5000 127.5000 164.5000 Du        
  21597 ****       129.5000 127.5000 164.7500 Du        
  21598 ****       129.5000 127.5000 165.0000 Du        
  21599 ****       129.5000 127.5000 165.2500 Du        
  21600 ****       129.5000 127.5000 165.5000 Du        
  21601 ****       129.5000 127.5000 165.7500 Du        
  21602 ****       129.5000 127.5000 166.0000 Du        
  21603 ****       129.5000 127.7500  97.0000 Du        
  21604 ****       129.5000 127.7500  97.2500 Du        
  21605 ****       129.5000 127.7500  97.5000 Du        
  21606 ****       129.5000 127.7500  97.7500 Du        
  21607 ****       129.5000 127.7500  98.0000 Du        
  21608 ****       129.5000 127.7500  98.2500 Du        
  21609 ****       129.5000 127.7500  98.5000 Du        
  21610 ****       129.5000 127.7500  98.7500 Du        
  21611 ****       129.5000 127.7500  99.0000 Du        
  21612 ****       129.5000 127.7500  99.2500 Du        
  21613 ****       129.5000 127.7500 164.5000 Du        
  21614 ****       129.5000 127.7500 164.7500 Du        
  21615 ****       129.5000 127.7500 165.0000 Du        
  21616 ****       129.5000 127.7500 165.2500 Du        
  21617 ****       129.5000 127.7500 165.5000 Du        
  21618 ****       129.5000 127.7500 165.7500 Du        
  21619 ****       129.5000 128.0000  97.0000 Du        
  21620 ****       129.5000 128.0000  97.2500 Du        
  21621 ****       129.5000 128.0000  97.5000 Du        
  21622 ****       129.5000 128.0000  97.7500 Du        
  21623 ****       129.5000 128.0000  98.0000 Du        
  21624 ****       129.5000 128.0000  98.2500 Du        
  21625 ****       129.5000 128.0000  98.7500 Du        
  21626 ****       129.5000 128.0000  99.0000 Du        
  21627 ****       129.5000 128.0000 165.2500 Du        
  21628 ****       129.5000 131.5000 169.5000 Du        
  21629 ****       129.5000 131.5000 169.7500 Du        
  21630 ****       129.5000 132.7500 156.7500 Du        
  21631 ****       129.5000 133.0000 156.5000 Du        
  21632 ****       129.5000 133.0000 156.7500 Du        
  21633 ****       129.5000 133.2500 156.2500 Du        
  21634 ****       129.5000 133.2500 156.5000 Du        
  21635 ****       129.5000 133.2500 156.7500 Du        
  21636 ****       129.5000 133.2500 157.0000 Du        
  21637 ****       129.5000 133.5000 156.2500 Du        
  21638 ****       129.5000 133.5000 156.5000 Du        
  21639 ****       129.5000 133.5000 156.7500 Du        
  21640 ****       129.5000 133.5000 157.0000 Du        
  21641 ****       129.5000 133.7500 156.2500 Du        
  21642 ****       129.5000 133.7500 156.5000 Du        
  21643 ****       129.5000 133.7500 156.7500 Du        
  21644 ****       129.5000 133.7500 157.0000 Du        
  21645 ****       129.5000 133.7500 157.2500 Du        
  21646 ****       129.5000 134.0000 156.5000 Du        
  21647 ****       129.5000 134.0000 156.7500 Du        
  21648 ****       129.5000 134.0000 157.0000 Du        
  21649 ****       129.5000 134.0000 157.2500 Du        
  21650 ****       129.5000 134.2500 157.0000 Du        
  21651 ****       129.5000 134.2500 157.2500 Du        
  21652 ****       129.5000 139.5000 104.2500 Du        
  21653 ****       129.5000 139.5000 104.5000 Du        
  21654 ****       129.5000 139.5000 104.7500 Du        
  21655 ****       129.5000 139.5000 105.0000 Du        
  21656 ****       129.5000 139.5000 105.2500 Du        
  21657 ****       129.5000 139.7500 103.7500 Du        
  21658 ****       129.5000 139.7500 104.0000 Du        
  21659 ****       129.5000 139.7500 104.2500 Du        
  21660 ****       129.5000 139.7500 104.5000 Du        
  21661 ****       129.5000 139.7500 104.7500 Du        
  21662 ****       129.5000 139.7500 105.0000 Du        
  21663 ****       129.5000 140.0000 103.5000 Du        
  21664 ****       129.5000 140.0000 103.7500 Du        
  21665 ****       129.5000 140.0000 104.0000 Du        
  21666 ****       129.5000 140.0000 104.2500 Du        
  21667 ****       129.5000 140.0000 104.5000 Du        
  21668 ****       129.5000 140.0000 104.7500 Du        
  21669 ****       129.5000 140.2500 103.2500 Du        
  21670 ****       129.5000 140.2500 103.5000 Du        
  21671 ****       129.5000 140.2500 103.7500 Du        
  21672 ****       129.5000 140.2500 104.0000 Du        
  21673 ****       129.5000 140.2500 104.2500 Du        
  21674 ****       129.5000 140.2500 104.5000 Du        
  21675 ****       129.5000 140.5000 103.0000 Du        
  21676 ****       129.5000 140.5000 103.2500 Du        
  21677 ****       129.5000 140.5000 103.5000 Du        
  21678 ****       129.5000 140.5000 103.7500 Du        
  21679 ****       129.5000 140.5000 104.0000 Du        
  21680 ****       129.5000 140.5000 104.2500 Du        
  21681 ****       129.5000 140.5000 104.5000 Du        
  21682 ****       129.5000 140.7500 102.7500 Du        
  21683 ****       129.5000 140.7500 103.0000 Du        
  21684 ****       129.5000 140.7500 103.2500 Du        
  21685 ****       129.5000 140.7500 103.5000 Du        
  21686 ****       129.5000 140.7500 103.7500 Du        
  21687 ****       129.5000 140.7500 104.0000 Du        
  21688 ****       129.5000 140.7500 104.2500 Du        
  21689 ****       129.5000 141.0000 102.7500 Du        
  21690 ****       129.5000 141.0000 103.0000 Du        
  21691 ****       129.5000 141.0000 103.2500 Du        
  21692 ****       129.5000 141.0000 103.5000 Du        
  21693 ****       129.5000 141.0000 103.7500 Du        
  21694 ****       129.5000 141.0000 104.0000 Du        
  21695 ****       129.5000 141.0000 104.2500 Du        
  21696 ****       129.5000 141.2500 102.7500 Du        
  21697 ****       129.5000 141.2500 103.0000 Du        
  21698 ****       129.5000 141.2500 103.2500 Du        
  21699 ****       129.5000 141.2500 103.5000 Du        
  21700 ****       129.5000 141.2500 103.7500 Du        
  21701 ****       129.5000 141.2500 104.0000 Du        
  21702 ****       129.5000 141.2500 104.2500 Du        
  21703 ****       129.5000 141.5000 102.5000 Du        
  21704 ****       129.5000 141.5000 102.7500 Du        
  21705 ****       129.5000 141.5000 103.0000 Du        
  21706 ****       129.5000 141.5000 103.2500 Du        
  21707 ****       129.5000 141.5000 103.5000 Du        
  21708 ****       129.5000 141.5000 103.7500 Du        
  21709 ****       129.5000 141.5000 104.0000 Du        
  21710 ****       129.5000 141.7500 102.2500 Du        
  21711 ****       129.5000 141.7500 102.5000 Du        
  21712 ****       129.5000 141.7500 102.7500 Du        
  21713 ****       129.5000 141.7500 103.0000 Du        
  21714 ****       129.5000 141.7500 103.2500 Du        
  21715 ****       129.5000 141.7500 103.5000 Du        
  21716 ****       129.5000 141.7500 103.7500 Du        
  21717 ****       129.5000 141.7500 104.0000 Du        
  21718 ****       129.5000 142.0000 102.0000 Du        
  21719 ****       129.5000 142.0000 102.2500 Du        
  21720 ****       129.5000 142.0000 102.5000 Du        
  21721 ****       129.5000 142.0000 102.7500 Du        
  21722 ****       129.5000 142.0000 103.0000 Du        
  21723 ****       129.5000 142.0000 103.2500 Du        
  21724 ****       129.5000 142.0000 103.5000 Du        
  21725 ****       129.5000 142.0000 103.7500 Du        
  21726 ****       129.5000 142.0000 104.0000 Du        
  21727 ****       129.5000 142.2500 102.2500 Du        
  21728 ****       129.5000 142.2500 102.5000 Du        
  21729 ****       129.5000 142.2500 102.7500 Du        
  21730 ****       129.5000 142.2500 103.0000 Du        
  21731 ****       129.5000 142.2500 103.2500 Du        
  21732 ****       129.5000 142.2500 103.5000 Du        
  21733 ****       129.5000 142.2500 103.7500 Du        
  21734 ****       129.5000 142.5000 102.5000 Du        
  21735 ****       129.5000 142.5000 102.7500 Du        
  21736 ****       129.5000 142.5000 103.0000 Du        
  21737 ****       129.5000 142.7500 102.0000 Du        
  21738 ****       129.5000 142.7500 102.2500 Du        
  21739 ****       129.5000 142.7500 102.5000 Du        
  21740 ****       129.5000 142.7500 102.7500 Du        
  21741 ****       129.5000 142.7500 103.0000 Du        
  21742 ****       129.5000 143.0000 101.7500 Du        
  21743 ****       129.5000 143.0000 102.0000 Du        
  21744 ****       129.5000 143.0000 102.2500 Du        
  21745 ****       129.5000 143.0000 102.5000 Du        
  21746 ****       129.5000 143.2500 101.7500 Du        
  21747 ****       129.5000 143.2500 102.0000 Du        
  21748 ****       129.5000 143.2500 102.2500 Du        
  21749 ****       129.5000 143.5000 100.5000 Du        
  21750 ****       129.5000 143.5000 100.7500 Du        
  21751 ****       129.5000 143.5000 101.2500 Du        
  21752 ****       129.5000 143.5000 101.5000 Du        
  21753 ****       129.5000 143.5000 101.7500 Du        
  21754 ****       129.5000 143.5000 102.0000 Du        
  21755 ****       129.5000 143.5000 102.2500 Du        
  21756 ****       129.5000 143.7500  99.5000 Du        
  21757 ****       129.5000 143.7500  99.7500 Du        
  21758 ****       129.5000 143.7500 100.0000 Du        
  21759 ****       129.5000 143.7500 100.2500 Du        
  21760 ****       129.5000 143.7500 100.5000 Du        
  21761 ****       129.5000 143.7500 100.7500 Du        
  21762 ****       129.5000 143.7500 101.0000 Du        
  21763 ****       129.5000 143.7500 101.2500 Du        
  21764 ****       129.5000 143.7500 101.5000 Du        
  21765 ****       129.5000 143.7500 101.7500 Du        
  21766 ****       129.5000 143.7500 102.0000 Du        
  21767 ****       129.5000 144.0000  99.5000 Du        
  21768 ****       129.5000 144.0000  99.7500 Du        
  21769 ****       129.5000 144.0000 100.0000 Du        
  21770 ****       129.5000 144.0000 100.2500 Du        
  21771 ****       129.5000 144.0000 100.5000 Du        
  21772 ****       129.5000 144.0000 100.7500 Du        
  21773 ****       129.5000 144.0000 101.0000 Du        
  21774 ****       129.5000 144.0000 101.2500 Du        
  21775 ****       129.5000 144.0000 101.5000 Du        
  21776 ****       129.5000 144.0000 101.7500 Du        
  21777 ****       129.5000 144.0000 102.0000 Du        
  21778 ****       129.5000 144.2500  99.7500 Du        
  21779 ****       129.5000 144.2500 100.0000 Du        
  21780 ****       129.5000 144.2500 100.2500 Du        
  21781 ****       129.5000 144.2500 100.5000 Du        
  21782 ****       129.5000 144.2500 100.7500 Du        
  21783 ****       129.5000 144.2500 101.0000 Du        
  21784 ****       129.5000 144.2500 101.2500 Du        
  21785 ****       129.5000 144.2500 101.5000 Du        
  21786 ****       129.5000 144.2500 101.7500 Du        
  21787 ****       129.5000 144.5000  99.7500 Du        
  21788 ****       129.5000 144.5000 100.0000 Du        
  21789 ****       129.5000 144.5000 100.2500 Du        
  21790 ****       129.5000 144.5000 100.5000 Du        
  21791 ****       129.5000 144.5000 100.7500 Du        
  21792 ****       129.5000 144.5000 101.0000 Du        
  21793 ****       129.5000 144.5000 101.2500 Du        
  21794 ****       129.5000 144.5000 101.5000 Du        
  21795 ****       129.5000 144.5000 101.7500 Du        
  21796 ****       129.5000 144.7500  99.7500 Du        
  21797 ****       129.5000 144.7500 100.0000 Du        
  21798 ****       129.5000 144.7500 100.2500 Du        
  21799 ****       129.5000 144.7500 100.5000 Du        
  21800 ****       129.5000 144.7500 100.7500 Du        
  21801 ****       129.5000 144.7500 101.0000 Du        
  21802 ****       129.5000 144.7500 101.2500 Du        
  21803 ****       129.5000 144.7500 101.5000 Du        
  21804 ****       129.5000 144.7500 101.7500 Du        
  21805 ****       129.5000 145.0000 100.0000 Du        
  21806 ****       129.5000 145.0000 100.2500 Du        
  21807 ****       129.5000 145.0000 100.5000 Du        
  21808 ****       129.5000 145.0000 100.7500 Du        
  21809 ****       129.5000 145.0000 101.0000 Du        
  21810 ****       129.5000 145.0000 101.2500 Du        
  21811 ****       129.5000 145.0000 101.5000 Du        
  21812 ****       129.5000 145.0000 101.7500 Du        
  21813 ****       129.5000 145.0000 126.7500 Du        
  21814 ****       129.5000 145.0000 127.0000 Du        
  21815 ****       129.5000 145.2500 100.0000 Du        
  21816 ****       129.5000 145.2500 100.2500 Du        
  21817 ****       129.5000 145.2500 100.5000 Du        
  21818 ****       129.5000 145.2500 100.7500 Du        
  21819 ****       129.5000 145.2500 101.0000 Du        
  21820 ****       129.5000 145.2500 101.2500 Du        
  21821 ****       129.5000 145.2500 101.5000 Du        
  21822 ****       129.5000 145.2500 101.7500 Du        
  21823 ****       129.5000 145.2500 126.7500 Du        
  21824 ****       129.5000 145.2500 127.0000 Du        
  21825 ****       129.5000 145.5000 100.2500 Du        
  21826 ****       129.5000 145.5000 100.5000 Du        
  21827 ****       129.5000 145.5000 100.7500 Du        
  21828 ****       129.5000 145.5000 101.0000 Du        
  21829 ****       129.5000 145.5000 101.2500 Du        
  21830 ****       129.5000 145.5000 101.5000 Du        
  21831 ****       129.5000 145.5000 101.7500 Du        
  21832 ****       129.5000 145.7500 100.5000 Du        
  21833 ****       129.5000 145.7500 100.7500 Du        
  21834 ****       129.5000 145.7500 101.0000 Du        
  21835 ****       129.5000 145.7500 101.2500 Du        
  21836 ****       129.5000 145.7500 101.5000 Du        
  21837 ****       129.5000 157.5000 161.5000 Du        
  21838 ****       129.5000 157.5000 161.7500 Du        
  21839 ****       129.5000 157.5000 162.0000 Du        
  21840 ****       129.5000 157.7500 161.2500 Du        
  21841 ****       129.5000 157.7500 161.5000 Du        
  21842 ****       129.5000 157.7500 161.7500 Du        
  21843 ****       129.5000 157.7500 162.0000 Du        
  21844 ****       129.5000 158.0000 161.0000 Du        
  21845 ****       129.5000 158.0000 161.2500 Du        
  21846 ****       129.5000 158.0000 161.5000 Du        
  21847 ****       129.5000 158.0000 161.7500 Du        
  21848 ****       129.5000 158.0000 162.0000 Du        
  21849 ****       129.5000 158.0000 162.2500 Du        
  21850 ****       129.5000 158.2500 161.2500 Du        
  21851 ****       129.5000 158.2500 161.5000 Du        
  21852 ****       129.5000 158.2500 161.7500 Du        
  21853 ****       129.5000 158.2500 162.0000 Du        
  21854 ****       129.5000 158.2500 162.2500 Du        
  21855 ****       129.5000 158.5000 161.7500 Du        
  21856 ****       129.5000 158.5000 162.0000 Du        
  21857 ****       129.5000 158.5000 162.2500 Du        
  21858 ****       129.5000 158.5000 162.5000 Du        
  21859 ****       129.5000 158.7500 162.2500 Du        
  21860 ****       129.5000 158.7500 162.5000 Du        
  21861 ****       129.5000 158.7500 162.7500 Du        
  21862 ****       129.5000 159.0000 162.5000 Du        
  21863 ****       129.5000 159.0000 162.7500 Du        
  21864 ****       129.7500 121.0000 141.0000 Du        
  21865 ****       129.7500 121.0000 141.2500 Du        
  21866 ****       129.7500 121.0000 141.5000 Du        
  21867 ****       129.7500 121.0000 141.7500 Du        
  21868 ****       129.7500 121.0000 142.0000 Du        
  21869 ****       129.7500 121.0000 142.2500 Du        
  21870 ****       129.7500 121.0000 142.7500 Du        
  21871 ****       129.7500 121.0000 143.0000 Du        
  21872 ****       129.7500 121.2500 141.2500 Du        
  21873 ****       129.7500 121.2500 141.5000 Du        
  21874 ****       129.7500 121.2500 141.7500 Du        
  21875 ****       129.7500 121.2500 142.0000 Du        
  21876 ****       129.7500 121.2500 142.2500 Du        
  21877 ****       129.7500 121.2500 142.7500 Du        
  21878 ****       129.7500 121.2500 143.0000 Du        
  21879 ****       129.7500 121.2500 143.2500 Du        
  21880 ****       129.7500 121.5000 141.2500 Du        
  21881 ****       129.7500 121.5000 141.5000 Du        
  21882 ****       129.7500 121.5000 141.7500 Du        
  21883 ****       129.7500 121.5000 142.0000 Du        
  21884 ****       129.7500 121.5000 142.2500 Du        
  21885 ****       129.7500 121.5000 142.5000 Du        
  21886 ****       129.7500 121.5000 142.7500 Du        
  21887 ****       129.7500 121.5000 143.0000 Du        
  21888 ****       129.7500 121.5000 143.2500 Du        
  21889 ****       129.7500 121.7500 141.7500 Du        
  21890 ****       129.7500 121.7500 142.0000 Du        
  21891 ****       129.7500 121.7500 142.2500 Du        
  21892 ****       129.7500 121.7500 142.5000 Du        
  21893 ****       129.7500 121.7500 142.7500 Du        
  21894 ****       129.7500 121.7500 143.0000 Du        
  21895 ****       129.7500 121.7500 143.2500 Du        
  21896 ****       129.7500 122.0000 142.7500 Du        
  21897 ****       129.7500 122.0000 143.0000 Du        
  21898 ****       129.7500 122.0000 143.2500 Du        
  21899 ****       129.7500 126.0000  98.7500 Du        
  21900 ****       129.7500 126.0000  99.0000 Du        
  21901 ****       129.7500 126.2500  98.5000 Du        
  21902 ****       129.7500 126.2500  98.7500 Du        
  21903 ****       129.7500 126.2500  99.0000 Du        
  21904 ****       129.7500 126.5000  97.2500 Du        
  21905 ****       129.7500 126.5000  97.5000 Du        
  21906 ****       129.7500 126.5000  97.7500 Du        
  21907 ****       129.7500 126.5000  98.0000 Du        
  21908 ****       129.7500 126.5000  98.2500 Du        
  21909 ****       129.7500 126.5000  98.5000 Du        
  21910 ****       129.7500 126.5000  98.7500 Du        
  21911 ****       129.7500 126.5000  99.0000 Du        
  21912 ****       129.7500 126.7500  97.0000 Du        
  21913 ****       129.7500 126.7500  97.2500 Du        
  21914 ****       129.7500 126.7500  97.5000 Du        
  21915 ****       129.7500 126.7500  97.7500 Du        
  21916 ****       129.7500 126.7500  98.0000 Du        
  21917 ****       129.7500 126.7500  98.2500 Du        
  21918 ****       129.7500 126.7500  98.5000 Du        
  21919 ****       129.7500 126.7500  98.7500 Du        
  21920 ****       129.7500 126.7500  99.0000 Du        
  21921 ****       129.7500 126.7500  99.2500 Du        
  21922 ****       129.7500 127.0000  97.0000 Du        
  21923 ****       129.7500 127.0000  97.2500 Du        
  21924 ****       129.7500 127.0000  97.5000 Du        
  21925 ****       129.7500 127.0000  97.7500 Du        
  21926 ****       129.7500 127.0000  98.0000 Du        
  21927 ****       129.7500 127.0000  98.2500 Du        
  21928 ****       129.7500 127.0000  98.5000 Du        
  21929 ****       129.7500 127.0000  98.7500 Du        
  21930 ****       129.7500 127.0000  99.0000 Du        
  21931 ****       129.7500 127.0000  99.2500 Du        
  21932 ****       129.7500 127.0000 165.0000 Du        
  21933 ****       129.7500 127.0000 165.2500 Du        
  21934 ****       129.7500 127.0000 165.5000 Du        
  21935 ****       129.7500 127.0000 165.7500 Du        
  21936 ****       129.7500 127.0000 167.7500 Du        
  21937 ****       129.7500 127.0000 168.0000 Du        
  21938 ****       129.7500 127.0000 168.2500 Du        
  21939 ****       129.7500 127.2500  97.0000 Du        
  21940 ****       129.7500 127.2500  97.2500 Du        
  21941 ****       129.7500 127.2500  97.5000 Du        
  21942 ****       129.7500 127.2500  97.7500 Du        
  21943 ****       129.7500 127.2500  98.0000 Du        
  21944 ****       129.7500 127.2500  98.2500 Du        
  21945 ****       129.7500 127.2500  98.5000 Du        
  21946 ****       129.7500 127.2500  98.7500 Du        
  21947 ****       129.7500 127.2500  99.0000 Du        
  21948 ****       129.7500 127.2500  99.2500 Du        
  21949 ****       129.7500 127.2500 164.7500 Du        
  21950 ****       129.7500 127.2500 165.0000 Du        
  21951 ****       129.7500 127.2500 165.2500 Du        
  21952 ****       129.7500 127.2500 165.5000 Du        
  21953 ****       129.7500 127.2500 165.7500 Du        
  21954 ****       129.7500 127.2500 166.0000 Du        
  21955 ****       129.7500 127.2500 166.2500 Du        
  21956 ****       129.7500 127.2500 166.5000 Du        
  21957 ****       129.7500 127.2500 166.7500 Du        
  21958 ****       129.7500 127.2500 167.0000 Du        
  21959 ****       129.7500 127.2500 167.2500 Du        
  21960 ****       129.7500 127.2500 168.0000 Du        
  21961 ****       129.7500 127.5000  97.0000 Du        
  21962 ****       129.7500 127.5000  97.2500 Du        
  21963 ****       129.7500 127.5000  97.5000 Du        
  21964 ****       129.7500 127.5000  97.7500 Du        
  21965 ****       129.7500 127.5000  98.0000 Du        
  21966 ****       129.7500 127.5000  98.2500 Du        
  21967 ****       129.7500 127.5000  98.5000 Du        
  21968 ****       129.7500 127.5000  98.7500 Du        
  21969 ****       129.7500 127.5000  99.0000 Du        
  21970 ****       129.7500 127.5000  99.2500 Du        
  21971 ****       129.7500 127.5000 164.7500 Du        
  21972 ****       129.7500 127.5000 165.0000 Du        
  21973 ****       129.7500 127.5000 165.2500 Du        
  21974 ****       129.7500 127.5000 165.5000 Du        
  21975 ****       129.7500 127.5000 165.7500 Du        
  21976 ****       129.7500 127.5000 166.0000 Du        
  21977 ****       129.7500 127.5000 166.2500 Du        
  21978 ****       129.7500 127.5000 166.5000 Du        
  21979 ****       129.7500 127.7500  97.2500 Du        
  21980 ****       129.7500 127.7500  97.5000 Du        
  21981 ****       129.7500 127.7500  97.7500 Du        
  21982 ****       129.7500 127.7500  98.0000 Du        
  21983 ****       129.7500 127.7500  98.2500 Du        
  21984 ****       129.7500 127.7500  98.5000 Du        
  21985 ****       129.7500 127.7500  98.7500 Du        
  21986 ****       129.7500 127.7500  99.0000 Du        
  21987 ****       129.7500 127.7500  99.2500 Du        
  21988 ****       129.7500 127.7500 164.7500 Du        
  21989 ****       129.7500 127.7500 165.0000 Du        
  21990 ****       129.7500 127.7500 165.2500 Du        
  21991 ****       129.7500 127.7500 165.5000 Du        
  21992 ****       129.7500 127.7500 165.7500 Du        
  21993 ****       129.7500 127.7500 166.0000 Du        
  21994 ****       129.7500 127.7500 166.2500 Du        
  21995 ****       129.7500 128.0000  97.2500 Du        
  21996 ****       129.7500 128.0000  97.5000 Du        
  21997 ****       129.7500 128.0000  97.7500 Du        
  21998 ****       129.7500 128.0000  98.0000 Du        
  21999 ****       129.7500 128.0000 165.5000 Du        
  22000 ****       129.7500 128.0000 165.7500 Du        
  22001 ****       129.7500 128.0000 166.0000 Du        
  22002 ****       129.7500 131.2500 169.2500 Du        
  22003 ****       129.7500 131.2500 169.5000 Du        
  22004 ****       129.7500 131.2500 169.7500 Du        
  22005 ****       129.7500 131.5000 169.0000 Du        
  22006 ****       129.7500 131.5000 169.2500 Du        
  22007 ****       129.7500 131.5000 169.5000 Du        
  22008 ****       129.7500 131.5000 169.7500 Du        
  22009 ****       129.7500 131.7500 169.7500 Du        
  22010 ****       129.7500 132.7500 156.2500 Du        
  22011 ****       129.7500 132.7500 156.5000 Du        
  22012 ****       129.7500 133.0000 156.0000 Du        
  22013 ****       129.7500 133.0000 156.2500 Du        
  22014 ****       129.7500 133.0000 156.5000 Du        
  22015 ****       129.7500 133.2500 139.7500 Du        
  22016 ****       129.7500 133.2500 140.0000 Du        
  22017 ****       129.7500 133.2500 140.2500 Du        
  22018 ****       129.7500 133.2500 156.0000 Du        
  22019 ****       129.7500 133.2500 156.2500 Du        
  22020 ****       129.7500 133.2500 156.5000 Du        
  22021 ****       129.7500 133.2500 156.7500 Du        
  22022 ****       129.7500 133.5000 140.0000 Du        
  22023 ****       129.7500 133.5000 140.2500 Du        
  22024 ****       129.7500 133.5000 140.5000 Du        
  22025 ****       129.7500 133.5000 140.7500 Du        
  22026 ****       129.7500 133.5000 156.0000 Du        
  22027 ****       129.7500 133.5000 156.2500 Du        
  22028 ****       129.7500 133.5000 156.5000 Du        
  22029 ****       129.7500 133.5000 156.7500 Du        
  22030 ****       129.7500 133.5000 157.0000 Du        
  22031 ****       129.7500 133.7500 156.0000 Du        
  22032 ****       129.7500 133.7500 156.2500 Du        
  22033 ****       129.7500 133.7500 156.5000 Du        
  22034 ****       129.7500 133.7500 156.7500 Du        
  22035 ****       129.7500 133.7500 157.0000 Du        
  22036 ****       129.7500 134.0000 156.2500 Du        
  22037 ****       129.7500 134.0000 156.5000 Du        
  22038 ****       129.7500 134.0000 156.7500 Du        
  22039 ****       129.7500 134.0000 157.0000 Du        
  22040 ****       129.7500 134.2500 156.7500 Du        
  22041 ****       129.7500 134.2500 157.0000 Du        
  22042 ****       129.7500 139.2500 104.5000 Du        
  22043 ****       129.7500 139.2500 104.7500 Du        
  22044 ****       129.7500 139.2500 105.0000 Du        
  22045 ****       129.7500 139.2500 105.2500 Du        
  22046 ****       129.7500 139.2500 105.5000 Du        
  22047 ****       129.7500 139.5000 104.0000 Du        
  22048 ****       129.7500 139.5000 104.2500 Du        
  22049 ****       129.7500 139.5000 104.5000 Du        
  22050 ****       129.7500 139.5000 104.7500 Du        
  22051 ****       129.7500 139.5000 105.0000 Du        
  22052 ****       129.7500 139.5000 105.2500 Du        
  22053 ****       129.7500 139.5000 105.5000 Du        
  22054 ****       129.7500 139.7500 103.7500 Du        
  22055 ****       129.7500 139.7500 104.0000 Du        
  22056 ****       129.7500 139.7500 104.2500 Du        
  22057 ****       129.7500 139.7500 104.5000 Du        
  22058 ****       129.7500 139.7500 104.7500 Du        
  22059 ****       129.7500 139.7500 105.0000 Du        
  22060 ****       129.7500 139.7500 105.2500 Du        
  22061 ****       129.7500 139.7500 105.5000 Du        
  22062 ****       129.7500 140.0000 103.5000 Du        
  22063 ****       129.7500 140.0000 103.7500 Du        
  22064 ****       129.7500 140.0000 104.0000 Du        
  22065 ****       129.7500 140.0000 104.2500 Du        
  22066 ****       129.7500 140.0000 104.5000 Du        
  22067 ****       129.7500 140.0000 104.7500 Du        
  22068 ****       129.7500 140.0000 105.0000 Du        
  22069 ****       129.7500 140.0000 105.2500 Du        
  22070 ****       129.7500 140.0000 105.5000 Du        
  22071 ****       129.7500 140.2500 103.2500 Du        
  22072 ****       129.7500 140.2500 103.5000 Du        
  22073 ****       129.7500 140.2500 103.7500 Du        
  22074 ****       129.7500 140.2500 104.0000 Du        
  22075 ****       129.7500 140.2500 104.2500 Du        
  22076 ****       129.7500 140.2500 104.5000 Du        
  22077 ****       129.7500 140.2500 104.7500 Du        
  22078 ****       129.7500 140.2500 105.0000 Du        
  22079 ****       129.7500 140.2500 105.2500 Du        
  22080 ****       129.7500 140.5000 103.0000 Du        
  22081 ****       129.7500 140.5000 103.2500 Du        
  22082 ****       129.7500 140.5000 103.5000 Du        
  22083 ****       129.7500 140.5000 103.7500 Du        
  22084 ****       129.7500 140.5000 104.0000 Du        
  22085 ****       129.7500 140.5000 104.2500 Du        
  22086 ****       129.7500 140.5000 104.5000 Du        
  22087 ****       129.7500 140.5000 104.7500 Du        
  22088 ****       129.7500 140.5000 105.0000 Du        
  22089 ****       129.7500 140.7500 102.5000 Du        
  22090 ****       129.7500 140.7500 102.7500 Du        
  22091 ****       129.7500 140.7500 103.0000 Du        
  22092 ****       129.7500 140.7500 103.2500 Du        
  22093 ****       129.7500 140.7500 103.5000 Du        
  22094 ****       129.7500 140.7500 103.7500 Du        
  22095 ****       129.7500 140.7500 104.0000 Du        
  22096 ****       129.7500 140.7500 104.2500 Du        
  22097 ****       129.7500 140.7500 104.5000 Du        
  22098 ****       129.7500 140.7500 104.7500 Du        
  22099 ****       129.7500 140.7500 105.0000 Du        
  22100 ****       129.7500 141.0000 102.5000 Du        
  22101 ****       129.7500 141.0000 102.7500 Du        
  22102 ****       129.7500 141.0000 103.0000 Du        
  22103 ****       129.7500 141.0000 103.2500 Du        
  22104 ****       129.7500 141.0000 103.5000 Du        
  22105 ****       129.7500 141.0000 103.7500 Du        
  22106 ****       129.7500 141.0000 104.0000 Du        
  22107 ****       129.7500 141.0000 104.2500 Du        
  22108 ****       129.7500 141.0000 104.5000 Du        
  22109 ****       129.7500 141.0000 104.7500 Du        
  22110 ****       129.7500 141.0000 105.0000 Du        
  22111 ****       129.7500 141.2500 102.5000 Du        
  22112 ****       129.7500 141.2500 102.7500 Du        
  22113 ****       129.7500 141.2500 103.0000 Du        
  22114 ****       129.7500 141.2500 103.2500 Du        
  22115 ****       129.7500 141.2500 103.5000 Du        
  22116 ****       129.7500 141.2500 103.7500 Du        
  22117 ****       129.7500 141.2500 104.0000 Du        
  22118 ****       129.7500 141.2500 104.2500 Du        
  22119 ****       129.7500 141.2500 104.5000 Du        
  22120 ****       129.7500 141.2500 104.7500 Du        
  22121 ****       129.7500 141.2500 105.0000 Du        
  22122 ****       129.7500 141.5000 102.5000 Du        
  22123 ****       129.7500 141.5000 102.7500 Du        
  22124 ****       129.7500 141.5000 103.0000 Du        
  22125 ****       129.7500 141.5000 103.2500 Du        
  22126 ****       129.7500 141.5000 103.5000 Du        
  22127 ****       129.7500 141.5000 103.7500 Du        
  22128 ****       129.7500 141.5000 104.0000 Du        
  22129 ****       129.7500 141.5000 104.2500 Du        
  22130 ****       129.7500 141.5000 104.5000 Du        
  22131 ****       129.7500 141.5000 104.7500 Du        
  22132 ****       129.7500 141.5000 105.0000 Du        
  22133 ****       129.7500 141.7500 102.0000 Du        
  22134 ****       129.7500 141.7500 102.2500 Du        
  22135 ****       129.7500 141.7500 102.5000 Du        
  22136 ****       129.7500 141.7500 102.7500 Du        
  22137 ****       129.7500 141.7500 103.0000 Du        
  22138 ****       129.7500 141.7500 103.2500 Du        
  22139 ****       129.7500 141.7500 103.5000 Du        
  22140 ****       129.7500 141.7500 103.7500 Du        
  22141 ****       129.7500 141.7500 104.0000 Du        
  22142 ****       129.7500 141.7500 104.2500 Du        
  22143 ****       129.7500 141.7500 104.5000 Du        
  22144 ****       129.7500 141.7500 104.7500 Du        
  22145 ****       129.7500 141.7500 105.0000 Du        
  22146 ****       129.7500 142.0000 102.0000 Du        
  22147 ****       129.7500 142.0000 102.2500 Du        
  22148 ****       129.7500 142.0000 102.5000 Du        
  22149 ****       129.7500 142.0000 102.7500 Du        
  22150 ****       129.7500 142.0000 103.0000 Du        
  22151 ****       129.7500 142.0000 103.2500 Du        
  22152 ****       129.7500 142.0000 103.5000 Du        
  22153 ****       129.7500 142.0000 103.7500 Du        
  22154 ****       129.7500 142.0000 104.0000 Du        
  22155 ****       129.7500 142.0000 104.2500 Du        
  22156 ****       129.7500 142.0000 104.5000 Du        
  22157 ****       129.7500 142.0000 104.7500 Du        
  22158 ****       129.7500 142.0000 105.0000 Du        
  22159 ****       129.7500 142.2500 102.2500 Du        
  22160 ****       129.7500 142.2500 102.5000 Du        
  22161 ****       129.7500 142.2500 102.7500 Du        
  22162 ****       129.7500 142.2500 103.0000 Du        
  22163 ****       129.7500 142.2500 103.2500 Du        
  22164 ****       129.7500 142.2500 103.5000 Du        
  22165 ****       129.7500 142.2500 103.7500 Du        
  22166 ****       129.7500 142.2500 104.0000 Du        
  22167 ****       129.7500 142.2500 104.2500 Du        
  22168 ****       129.7500 142.2500 104.5000 Du        
  22169 ****       129.7500 142.2500 104.7500 Du        
  22170 ****       129.7500 142.2500 105.0000 Du        
  22171 ****       129.7500 142.5000 102.2500 Du        
  22172 ****       129.7500 142.5000 102.5000 Du        
  22173 ****       129.7500 142.5000 102.7500 Du        
  22174 ****       129.7500 142.5000 103.0000 Du        
  22175 ****       129.7500 142.5000 103.2500 Du        
  22176 ****       129.7500 142.5000 103.5000 Du        
  22177 ****       129.7500 142.5000 103.7500 Du        
  22178 ****       129.7500 142.7500 102.0000 Du        
  22179 ****       129.7500 142.7500 102.2500 Du        
  22180 ****       129.7500 142.7500 102.5000 Du        
  22181 ****       129.7500 142.7500 102.7500 Du        
  22182 ****       129.7500 142.7500 103.0000 Du        
  22183 ****       129.7500 142.7500 103.2500 Du        
  22184 ****       129.7500 143.0000 101.7500 Du        
  22185 ****       129.7500 143.0000 102.0000 Du        
  22186 ****       129.7500 143.0000 102.2500 Du        
  22187 ****       129.7500 143.0000 102.5000 Du        
  22188 ****       129.7500 143.0000 102.7500 Du        
  22189 ****       129.7500 143.2500 101.7500 Du        
  22190 ****       129.7500 143.2500 102.0000 Du        
  22191 ****       129.7500 143.2500 102.2500 Du        
  22192 ****       129.7500 143.2500 102.5000 Du        
  22193 ****       129.7500 143.5000  99.5000 Du        
  22194 ****       129.7500 143.5000  99.7500 Du        
  22195 ****       129.7500 143.5000 100.0000 Du        
  22196 ****       129.7500 143.5000 100.2500 Du        
  22197 ****       129.7500 143.5000 100.5000 Du        
  22198 ****       129.7500 143.5000 101.0000 Du        
  22199 ****       129.7500 143.5000 101.2500 Du        
  22200 ****       129.7500 143.5000 101.5000 Du        
  22201 ****       129.7500 143.5000 101.7500 Du        
  22202 ****       129.7500 143.5000 102.0000 Du        
  22203 ****       129.7500 143.5000 102.2500 Du        
  22204 ****       129.7500 143.7500  99.2500 Du        
  22205 ****       129.7500 143.7500  99.5000 Du        
  22206 ****       129.7500 143.7500  99.7500 Du        
  22207 ****       129.7500 143.7500 100.0000 Du        
  22208 ****       129.7500 143.7500 100.2500 Du        
  22209 ****       129.7500 143.7500 100.5000 Du        
  22210 ****       129.7500 143.7500 100.7500 Du        
  22211 ****       129.7500 143.7500 101.0000 Du        
  22212 ****       129.7500 143.7500 101.2500 Du        
  22213 ****       129.7500 143.7500 101.5000 Du        
  22214 ****       129.7500 143.7500 101.7500 Du        
  22215 ****       129.7500 143.7500 102.0000 Du        
  22216 ****       129.7500 144.0000  99.2500 Du        
  22217 ****       129.7500 144.0000  99.5000 Du        
  22218 ****       129.7500 144.0000  99.7500 Du        
  22219 ****       129.7500 144.0000 100.0000 Du        
  22220 ****       129.7500 144.0000 100.2500 Du        
  22221 ****       129.7500 144.0000 100.5000 Du        
  22222 ****       129.7500 144.0000 100.7500 Du        
  22223 ****       129.7500 144.0000 101.0000 Du        
  22224 ****       129.7500 144.0000 101.2500 Du        
  22225 ****       129.7500 144.0000 101.5000 Du        
  22226 ****       129.7500 144.0000 101.7500 Du        
  22227 ****       129.7500 144.2500  99.5000 Du        
  22228 ****       129.7500 144.2500  99.7500 Du        
  22229 ****       129.7500 144.2500 100.0000 Du        
  22230 ****       129.7500 144.2500 100.2500 Du        
  22231 ****       129.7500 144.2500 100.5000 Du        
  22232 ****       129.7500 144.2500 100.7500 Du        
  22233 ****       129.7500 144.2500 101.0000 Du        
  22234 ****       129.7500 144.2500 101.2500 Du        
  22235 ****       129.7500 144.5000  99.5000 Du        
  22236 ****       129.7500 144.5000  99.7500 Du        
  22237 ****       129.7500 144.5000 100.0000 Du        
  22238 ****       129.7500 144.5000 100.2500 Du        
  22239 ****       129.7500 144.5000 100.5000 Du        
  22240 ****       129.7500 144.5000 100.7500 Du        
  22241 ****       129.7500 144.5000 101.0000 Du        
  22242 ****       129.7500 144.5000 101.2500 Du        
  22243 ****       129.7500 144.5000 101.5000 Du        
  22244 ****       129.7500 144.7500  99.7500 Du        
  22245 ****       129.7500 144.7500 100.0000 Du        
  22246 ****       129.7500 144.7500 100.2500 Du        
  22247 ****       129.7500 144.7500 100.5000 Du        
  22248 ****       129.7500 144.7500 100.7500 Du        
  22249 ****       129.7500 144.7500 101.0000 Du        
  22250 ****       129.7500 144.7500 101.2500 Du        
  22251 ****       129.7500 144.7500 101.5000 Du        
  22252 ****       129.7500 145.0000 100.0000 Du        
  22253 ****       129.7500 145.0000 100.2500 Du        
  22254 ****       129.7500 145.0000 100.5000 Du        
  22255 ****       129.7500 145.0000 100.7500 Du        
  22256 ****       129.7500 145.0000 101.0000 Du        
  22257 ****       129.7500 145.0000 101.2500 Du        
  22258 ****       129.7500 145.0000 126.7500 Du        
  22259 ****       129.7500 145.0000 127.0000 Du        
  22260 ****       129.7500 145.2500 100.0000 Du        
  22261 ****       129.7500 145.2500 100.2500 Du        
  22262 ****       129.7500 145.2500 100.5000 Du        
  22263 ****       129.7500 145.2500 100.7500 Du        
  22264 ****       129.7500 145.2500 101.0000 Du        
  22265 ****       129.7500 145.2500 101.2500 Du        
  22266 ****       129.7500 145.2500 126.7500 Du        
  22267 ****       129.7500 145.2500 127.0000 Du        
  22268 ****       129.7500 145.5000 100.2500 Du        
  22269 ****       129.7500 145.5000 100.5000 Du        
  22270 ****       129.7500 145.5000 100.7500 Du        
  22271 ****       129.7500 145.5000 101.0000 Du        
  22272 ****       129.7500 158.0000 161.0000 Du        
  22273 ****       129.7500 158.0000 161.2500 Du        
  22274 ****       129.7500 158.0000 161.5000 Du        
  22275 ****       129.7500 158.0000 161.7500 Du        
  22276 ****       129.7500 158.2500 161.0000 Du        
  22277 ****       129.7500 158.2500 161.2500 Du        
  22278 ****       129.7500 158.2500 161.5000 Du        
  22279 ****       129.7500 158.2500 161.7500 Du        
  22280 ****       129.7500 158.2500 162.0000 Du        
  22281 ****       129.7500 158.5000 161.2500 Du        
  22282 ****       129.7500 158.5000 161.5000 Du        
  22283 ****       129.7500 158.5000 161.7500 Du        
  22284 ****       129.7500 158.5000 162.0000 Du        
  22285 ****       129.7500 158.7500 161.7500 Du        
  22286 ****       129.7500 158.7500 162.0000 Du        
  22287 ****       129.7500 158.7500 162.2500 Du        
  22288 ****       129.7500 159.0000 162.2500 Du        
  22289 ****       129.7500 159.0000 162.5000 Du        
  22290 ****       129.7500 159.2500 162.5000 Du        
  22291 ****       129.7500 159.2500 162.7500 Du        
  22292 ****       130.0000 121.0000 141.0000 Du        
  22293 ****       130.0000 121.0000 141.2500 Du        
  22294 ****       130.0000 121.0000 141.5000 Du        
  22295 ****       130.0000 121.0000 141.7500 Du        
  22296 ****       130.0000 121.0000 142.0000 Du        
  22297 ****       130.0000 121.0000 142.2500 Du        
  22298 ****       130.0000 121.0000 142.5000 Du        
  22299 ****       130.0000 121.0000 142.7500 Du        
  22300 ****       130.0000 121.0000 143.0000 Du        
  22301 ****       130.0000 121.0000 143.2500 Du        
  22302 ****       130.0000 121.2500 141.2500 Du        
  22303 ****       130.0000 121.2500 141.5000 Du        
  22304 ****       130.0000 121.2500 141.7500 Du        
  22305 ****       130.0000 121.2500 142.0000 Du        
  22306 ****       130.0000 121.2500 142.2500 Du        
  22307 ****       130.0000 121.2500 142.5000 Du        
  22308 ****       130.0000 121.2500 142.7500 Du        
  22309 ****       130.0000 121.2500 143.0000 Du        
  22310 ****       130.0000 121.2500 143.2500 Du        
  22311 ****       130.0000 121.5000 141.2500 Du        
  22312 ****       130.0000 121.5000 141.5000 Du        
  22313 ****       130.0000 121.5000 141.7500 Du        
  22314 ****       130.0000 121.5000 142.0000 Du        
  22315 ****       130.0000 121.5000 142.2500 Du        
  22316 ****       130.0000 121.5000 142.5000 Du        
  22317 ****       130.0000 121.5000 142.7500 Du        
  22318 ****       130.0000 121.5000 143.0000 Du        
  22319 ****       130.0000 121.5000 143.2500 Du        
  22320 ****       130.0000 121.7500 141.5000 Du        
  22321 ****       130.0000 121.7500 141.7500 Du        
  22322 ****       130.0000 121.7500 142.0000 Du        
  22323 ****       130.0000 121.7500 142.2500 Du        
  22324 ****       130.0000 121.7500 142.5000 Du        
  22325 ****       130.0000 121.7500 142.7500 Du        
  22326 ****       130.0000 121.7500 143.0000 Du        
  22327 ****       130.0000 121.7500 143.2500 Du        
  22328 ****       130.0000 122.0000 142.7500 Du        
  22329 ****       130.0000 122.0000 143.0000 Du        
  22330 ****       130.0000 122.0000 143.2500 Du        
  22331 ****       130.0000 122.2500 143.2500 Du        
  22332 ****       130.0000 126.2500  98.7500 Du        
  22333 ****       130.0000 126.5000  97.2500 Du        
  22334 ****       130.0000 126.5000  97.5000 Du        
  22335 ****       130.0000 126.5000  97.7500 Du        
  22336 ****       130.0000 126.5000  98.0000 Du        
  22337 ****       130.0000 126.5000  98.2500 Du        
  22338 ****       130.0000 126.5000  98.5000 Du        
  22339 ****       130.0000 126.5000  98.7500 Du        
  22340 ****       130.0000 126.7500  97.0000 Du        
  22341 ****       130.0000 126.7500  97.2500 Du        
  22342 ****       130.0000 126.7500  97.5000 Du        
  22343 ****       130.0000 126.7500  97.7500 Du        
  22344 ****       130.0000 126.7500  98.0000 Du        
  22345 ****       130.0000 126.7500  98.2500 Du        
  22346 ****       130.0000 126.7500  98.5000 Du        
  22347 ****       130.0000 126.7500  98.7500 Du        
  22348 ****       130.0000 126.7500  99.0000 Du        
  22349 ****       130.0000 126.7500 168.0000 Du        
  22350 ****       130.0000 126.7500 168.2500 Du        
  22351 ****       130.0000 127.0000  97.0000 Du        
  22352 ****       130.0000 127.0000  97.2500 Du        
  22353 ****       130.0000 127.0000  97.5000 Du        
  22354 ****       130.0000 127.0000  97.7500 Du        
  22355 ****       130.0000 127.0000  98.0000 Du        
  22356 ****       130.0000 127.0000  98.2500 Du        
  22357 ****       130.0000 127.0000  98.5000 Du        
  22358 ****       130.0000 127.0000  98.7500 Du        
  22359 ****       130.0000 127.0000  99.0000 Du        
  22360 ****       130.0000 127.0000 165.0000 Du        
  22361 ****       130.0000 127.0000 165.2500 Du        
  22362 ****       130.0000 127.0000 165.5000 Du        
  22363 ****       130.0000 127.0000 165.7500 Du        
  22364 ****       130.0000 127.0000 166.0000 Du        
  22365 ****       130.0000 127.0000 166.2500 Du        
  22366 ****       130.0000 127.0000 166.7500 Du        
  22367 ****       130.0000 127.0000 167.0000 Du        
  22368 ****       130.0000 127.0000 167.2500 Du        
  22369 ****       130.0000 127.0000 167.5000 Du        
  22370 ****       130.0000 127.0000 167.7500 Du        
  22371 ****       130.0000 127.0000 168.0000 Du        
  22372 ****       130.0000 127.0000 168.2500 Du        
  22373 ****       130.0000 127.0000 168.5000 Du        
  22374 ****       130.0000 127.2500  97.2500 Du        
  22375 ****       130.0000 127.2500  97.5000 Du        
  22376 ****       130.0000 127.2500  97.7500 Du        
  22377 ****       130.0000 127.2500  98.0000 Du        
  22378 ****       130.0000 127.2500  98.2500 Du        
  22379 ****       130.0000 127.2500  98.5000 Du        
  22380 ****       130.0000 127.2500  98.7500 Du        
  22381 ****       130.0000 127.2500  99.0000 Du        
  22382 ****       130.0000 127.2500 165.0000 Du        
  22383 ****       130.0000 127.2500 165.2500 Du        
  22384 ****       130.0000 127.2500 165.5000 Du        
  22385 ****       130.0000 127.2500 165.7500 Du        
  22386 ****       130.0000 127.2500 166.0000 Du        
  22387 ****       130.0000 127.2500 166.2500 Du        
  22388 ****       130.0000 127.2500 166.5000 Du        
  22389 ****       130.0000 127.2500 166.7500 Du        
  22390 ****       130.0000 127.2500 167.0000 Du        
  22391 ****       130.0000 127.2500 167.2500 Du        
  22392 ****       130.0000 127.2500 167.5000 Du        
  22393 ****       130.0000 127.2500 167.7500 Du        
  22394 ****       130.0000 127.2500 168.0000 Du        
  22395 ****       130.0000 127.2500 168.2500 Du        
  22396 ****       130.0000 127.2500 168.5000 Du        
  22397 ****       130.0000 127.5000  97.2500 Du        
  22398 ****       130.0000 127.5000  97.5000 Du        
  22399 ****       130.0000 127.5000  97.7500 Du        
  22400 ****       130.0000 127.5000  98.0000 Du        
  22401 ****       130.0000 127.5000  98.2500 Du        
  22402 ****       130.0000 127.5000  98.5000 Du        
  22403 ****       130.0000 127.5000  98.7500 Du        
  22404 ****       130.0000 127.5000  99.0000 Du        
  22405 ****       130.0000 127.5000 165.0000 Du        
  22406 ****       130.0000 127.5000 165.2500 Du        
  22407 ****       130.0000 127.5000 165.5000 Du        
  22408 ****       130.0000 127.5000 165.7500 Du        
  22409 ****       130.0000 127.5000 166.0000 Du        
  22410 ****       130.0000 127.5000 166.2500 Du        
  22411 ****       130.0000 127.5000 166.5000 Du        
  22412 ****       130.0000 127.5000 166.7500 Du        
  22413 ****       130.0000 127.5000 167.0000 Du        
  22414 ****       130.0000 127.5000 167.2500 Du        
  22415 ****       130.0000 127.5000 167.5000 Du        
  22416 ****       130.0000 127.5000 167.7500 Du        
  22417 ****       130.0000 127.5000 168.0000 Du        
  22418 ****       130.0000 127.5000 168.2500 Du        
  22419 ****       130.0000 127.7500  97.2500 Du        
  22420 ****       130.0000 127.7500  97.5000 Du        
  22421 ****       130.0000 127.7500  97.7500 Du        
  22422 ****       130.0000 127.7500  98.0000 Du        
  22423 ****       130.0000 127.7500  98.2500 Du        
  22424 ****       130.0000 127.7500  98.5000 Du        
  22425 ****       130.0000 127.7500  98.7500 Du        
  22426 ****       130.0000 127.7500 165.0000 Du        
  22427 ****       130.0000 127.7500 165.2500 Du        
  22428 ****       130.0000 127.7500 165.5000 Du        
  22429 ****       130.0000 127.7500 165.7500 Du        
  22430 ****       130.0000 127.7500 166.0000 Du        
  22431 ****       130.0000 127.7500 166.2500 Du        
  22432 ****       130.0000 127.7500 166.5000 Du        
  22433 ****       130.0000 127.7500 166.7500 Du        
  22434 ****       130.0000 127.7500 167.0000 Du        
  22435 ****       130.0000 127.7500 167.2500 Du        
  22436 ****       130.0000 128.0000 165.5000 Du        
  22437 ****       130.0000 128.0000 165.7500 Du        
  22438 ****       130.0000 128.0000 166.0000 Du        
  22439 ****       130.0000 128.0000 166.2500 Du        
  22440 ****       130.0000 131.0000 169.0000 Du        
  22441 ****       130.0000 131.0000 169.2500 Du        
  22442 ****       130.0000 131.0000 169.5000 Du        
  22443 ****       130.0000 131.0000 169.7500 Du        
  22444 ****       130.0000 131.2500 168.7500 Du        
  22445 ****       130.0000 131.2500 169.0000 Du        
  22446 ****       130.0000 131.2500 169.2500 Du        
  22447 ****       130.0000 131.2500 169.5000 Du        
  22448 ****       130.0000 131.2500 169.7500 Du        
  22449 ****       130.0000 131.5000 168.5000 Du        
  22450 ****       130.0000 131.5000 168.7500 Du        
  22451 ****       130.0000 131.5000 169.0000 Du        
  22452 ****       130.0000 131.5000 169.2500 Du        
  22453 ****       130.0000 131.5000 169.5000 Du        
  22454 ****       130.0000 131.5000 169.7500 Du        
  22455 ****       130.0000 131.7500 167.2500 Du        
  22456 ****       130.0000 131.7500 169.7500 Du        
  22457 ****       130.0000 132.7500 139.2500 Du        
  22458 ****       130.0000 132.7500 155.7500 Du        
  22459 ****       130.0000 132.7500 156.0000 Du        
  22460 ****       130.0000 132.7500 156.2500 Du        
  22461 ****       130.0000 133.0000 139.0000 Du        
  22462 ****       130.0000 133.0000 139.2500 Du        
  22463 ****       130.0000 133.0000 139.5000 Du        
  22464 ****       130.0000 133.0000 139.7500 Du        
  22465 ****       130.0000 133.0000 140.0000 Du        
  22466 ****       130.0000 133.0000 140.2500 Du        
  22467 ****       130.0000 133.0000 155.5000 Du        
  22468 ****       130.0000 133.0000 155.7500 Du        
  22469 ****       130.0000 133.0000 156.0000 Du        
  22470 ****       130.0000 133.0000 156.2500 Du        
  22471 ****       130.0000 133.2500 139.2500 Du        
  22472 ****       130.0000 133.2500 139.5000 Du        
  22473 ****       130.0000 133.2500 139.7500 Du        
  22474 ****       130.0000 133.2500 140.0000 Du        
  22475 ****       130.0000 133.2500 140.2500 Du        
  22476 ****       130.0000 133.2500 140.5000 Du        
  22477 ****       130.0000 133.2500 140.7500 Du        
  22478 ****       130.0000 133.2500 141.0000 Du        
  22479 ****       130.0000 133.2500 141.2500 Du        
  22480 ****       130.0000 133.2500 155.7500 Du        
  22481 ****       130.0000 133.2500 156.0000 Du        
  22482 ****       130.0000 133.2500 156.2500 Du        
  22483 ****       130.0000 133.2500 156.5000 Du        
  22484 ****       130.0000 133.5000 139.5000 Du        
  22485 ****       130.0000 133.5000 139.7500 Du        
  22486 ****       130.0000 133.5000 140.0000 Du        
  22487 ****       130.0000 133.5000 140.2500 Du        
  22488 ****       130.0000 133.5000 140.5000 Du        
  22489 ****       130.0000 133.5000 140.7500 Du        
  22490 ****       130.0000 133.5000 141.0000 Du        
  22491 ****       130.0000 133.5000 155.7500 Du        
  22492 ****       130.0000 133.5000 156.0000 Du        
  22493 ****       130.0000 133.5000 156.2500 Du        
  22494 ****       130.0000 133.5000 156.5000 Du        
  22495 ****       130.0000 133.5000 156.7500 Du        
  22496 ****       130.0000 133.7500 140.0000 Du        
  22497 ****       130.0000 133.7500 140.2500 Du        
  22498 ****       130.0000 133.7500 140.5000 Du        
  22499 ****       130.0000 133.7500 155.5000 Du        
  22500 ****       130.0000 133.7500 155.7500 Du        
  22501 ****       130.0000 133.7500 156.0000 Du        
  22502 ****       130.0000 133.7500 156.2500 Du        
  22503 ****       130.0000 133.7500 156.5000 Du        
  22504 ****       130.0000 133.7500 156.7500 Du        
  22505 ****       130.0000 133.7500 157.0000 Du        
  22506 ****       130.0000 134.0000 156.0000 Du        
  22507 ****       130.0000 134.0000 156.2500 Du        
  22508 ****       130.0000 134.0000 156.5000 Du        
  22509 ****       130.0000 134.0000 156.7500 Du        
  22510 ****       130.0000 134.0000 157.0000 Du        
  22511 ****       130.0000 134.2500 156.5000 Du        
  22512 ****       130.0000 134.2500 156.7500 Du        
  22513 ****       130.0000 134.2500 157.0000 Du        
  22514 ****       130.0000 136.0000 165.0000 Du        
  22515 ****       130.0000 136.2500 165.0000 Du        
  22516 ****       130.0000 136.5000 165.0000 Du        
  22517 ****       130.0000 136.7500 165.0000 Du        
  22518 ****       130.0000 139.2500 104.2500 Du        
  22519 ****       130.0000 139.2500 104.5000 Du        
  22520 ****       130.0000 139.2500 104.7500 Du        
  22521 ****       130.0000 139.2500 105.0000 Du        
  22522 ****       130.0000 139.2500 105.2500 Du        
  22523 ****       130.0000 139.2500 105.5000 Du        
  22524 ****       130.0000 139.5000 104.0000 Du        
  22525 ****       130.0000 139.5000 104.2500 Du        
  22526 ****       130.0000 139.5000 104.5000 Du        
  22527 ****       130.0000 139.5000 104.7500 Du        
  22528 ****       130.0000 139.5000 105.0000 Du        
  22529 ****       130.0000 139.5000 105.2500 Du        
  22530 ****       130.0000 139.5000 105.5000 Du        
  22531 ****       130.0000 139.5000 105.7500 Du        
  22532 ****       130.0000 139.7500 103.7500 Du        
  22533 ****       130.0000 139.7500 104.0000 Du        
  22534 ****       130.0000 139.7500 104.2500 Du        
  22535 ****       130.0000 139.7500 104.5000 Du        
  22536 ****       130.0000 139.7500 104.7500 Du        
  22537 ****       130.0000 139.7500 105.0000 Du        
  22538 ****       130.0000 139.7500 105.2500 Du        
  22539 ****       130.0000 139.7500 105.5000 Du        
  22540 ****       130.0000 139.7500 105.7500 Du        
  22541 ****       130.0000 140.0000 103.5000 Du        
  22542 ****       130.0000 140.0000 103.7500 Du        
  22543 ****       130.0000 140.0000 104.0000 Du        
  22544 ****       130.0000 140.0000 104.2500 Du        
  22545 ****       130.0000 140.0000 104.5000 Du        
  22546 ****       130.0000 140.0000 104.7500 Du        
  22547 ****       130.0000 140.0000 105.0000 Du        
  22548 ****       130.0000 140.0000 105.2500 Du        
  22549 ****       130.0000 140.0000 105.5000 Du        
  22550 ****       130.0000 140.0000 105.7500 Du        
  22551 ****       130.0000 140.2500 103.2500 Du        
  22552 ****       130.0000 140.2500 103.5000 Du        
  22553 ****       130.0000 140.2500 103.7500 Du        
  22554 ****       130.0000 140.2500 104.0000 Du        
  22555 ****       130.0000 140.2500 104.2500 Du        
  22556 ****       130.0000 140.2500 104.5000 Du        
  22557 ****       130.0000 140.2500 104.7500 Du        
  22558 ****       130.0000 140.2500 105.0000 Du        
  22559 ****       130.0000 140.2500 105.2500 Du        
  22560 ****       130.0000 140.2500 105.5000 Du        
  22561 ****       130.0000 140.2500 105.7500 Du        
  22562 ****       130.0000 140.5000 103.0000 Du        
  22563 ****       130.0000 140.5000 103.2500 Du        
  22564 ****       130.0000 140.5000 103.5000 Du        
  22565 ****       130.0000 140.5000 103.7500 Du        
  22566 ****       130.0000 140.5000 104.0000 Du        
  22567 ****       130.0000 140.5000 104.2500 Du        
  22568 ****       130.0000 140.5000 104.5000 Du        
  22569 ****       130.0000 140.5000 104.7500 Du        
  22570 ****       130.0000 140.5000 105.0000 Du        
  22571 ****       130.0000 140.5000 105.2500 Du        
  22572 ****       130.0000 140.5000 105.5000 Du        
  22573 ****       130.0000 140.7500 102.7500 Du        
  22574 ****       130.0000 140.7500 103.0000 Du        
  22575 ****       130.0000 140.7500 103.2500 Du        
  22576 ****       130.0000 140.7500 103.5000 Du        
  22577 ****       130.0000 140.7500 103.7500 Du        
  22578 ****       130.0000 140.7500 104.0000 Du        
  22579 ****       130.0000 140.7500 104.2500 Du        
  22580 ****       130.0000 140.7500 104.5000 Du        
  22581 ****       130.0000 140.7500 104.7500 Du        
  22582 ****       130.0000 140.7500 105.0000 Du        
  22583 ****       130.0000 140.7500 105.2500 Du        
  22584 ****       130.0000 140.7500 105.5000 Du        
  22585 ****       130.0000 141.0000 102.5000 Du        
  22586 ****       130.0000 141.0000 102.7500 Du        
  22587 ****       130.0000 141.0000 103.0000 Du        
  22588 ****       130.0000 141.0000 103.2500 Du        
  22589 ****       130.0000 141.0000 103.5000 Du        
  22590 ****       130.0000 141.0000 103.7500 Du        
  22591 ****       130.0000 141.0000 104.0000 Du        
  22592 ****       130.0000 141.0000 104.2500 Du        
  22593 ****       130.0000 141.0000 104.5000 Du        
  22594 ****       130.0000 141.0000 104.7500 Du        
  22595 ****       130.0000 141.0000 105.0000 Du        
  22596 ****       130.0000 141.0000 105.2500 Du        
  22597 ****       130.0000 141.0000 105.5000 Du        
  22598 ****       130.0000 141.2500 102.5000 Du        
  22599 ****       130.0000 141.2500 102.7500 Du        
  22600 ****       130.0000 141.2500 103.0000 Du        
  22601 ****       130.0000 141.2500 103.2500 Du        
  22602 ****       130.0000 141.2500 103.5000 Du        
  22603 ****       130.0000 141.2500 103.7500 Du        
  22604 ****       130.0000 141.2500 104.0000 Du        
  22605 ****       130.0000 141.2500 104.2500 Du        
  22606 ****       130.0000 141.2500 104.5000 Du        
  22607 ****       130.0000 141.2500 104.7500 Du        
  22608 ****       130.0000 141.2500 105.0000 Du        
  22609 ****       130.0000 141.2500 105.2500 Du        
  22610 ****       130.0000 141.2500 105.5000 Du        
  22611 ****       130.0000 141.2500 105.7500 Du        
  22612 ****       130.0000 141.5000 102.2500 Du        
  22613 ****       130.0000 141.5000 102.5000 Du        
  22614 ****       130.0000 141.5000 102.7500 Du        
  22615 ****       130.0000 141.5000 103.0000 Du        
  22616 ****       130.0000 141.5000 103.2500 Du        
  22617 ****       130.0000 141.5000 103.5000 Du        
  22618 ****       130.0000 141.5000 103.7500 Du        
  22619 ****       130.0000 141.5000 104.0000 Du        
  22620 ****       130.0000 141.5000 104.2500 Du        
  22621 ****       130.0000 141.5000 104.5000 Du        
  22622 ****       130.0000 141.5000 104.7500 Du        
  22623 ****       130.0000 141.5000 105.0000 Du        
  22624 ****       130.0000 141.5000 105.2500 Du        
  22625 ****       130.0000 141.5000 105.5000 Du        
  22626 ****       130.0000 141.5000 105.7500 Du        
  22627 ****       130.0000 141.7500 102.0000 Du        
  22628 ****       130.0000 141.7500 102.2500 Du        
  22629 ****       130.0000 141.7500 102.5000 Du        
  22630 ****       130.0000 141.7500 102.7500 Du        
  22631 ****       130.0000 141.7500 103.0000 Du        
  22632 ****       130.0000 141.7500 103.2500 Du        
  22633 ****       130.0000 141.7500 103.5000 Du        
  22634 ****       130.0000 141.7500 103.7500 Du        
  22635 ****       130.0000 141.7500 104.0000 Du        
  22636 ****       130.0000 141.7500 104.2500 Du        
  22637 ****       130.0000 141.7500 104.5000 Du        
  22638 ****       130.0000 141.7500 104.7500 Du        
  22639 ****       130.0000 141.7500 105.0000 Du        
  22640 ****       130.0000 141.7500 105.2500 Du        
  22641 ****       130.0000 141.7500 105.5000 Du        
  22642 ****       130.0000 141.7500 105.7500 Du        
  22643 ****       130.0000 142.0000 102.0000 Du        
  22644 ****       130.0000 142.0000 102.2500 Du        
  22645 ****       130.0000 142.0000 102.5000 Du        
  22646 ****       130.0000 142.0000 102.7500 Du        
  22647 ****       130.0000 142.0000 103.0000 Du        
  22648 ****       130.0000 142.0000 103.2500 Du        
  22649 ****       130.0000 142.0000 103.5000 Du        
  22650 ****       130.0000 142.0000 103.7500 Du        
  22651 ****       130.0000 142.0000 104.0000 Du        
  22652 ****       130.0000 142.0000 104.2500 Du        
  22653 ****       130.0000 142.0000 104.5000 Du        
  22654 ****       130.0000 142.0000 104.7500 Du        
  22655 ****       130.0000 142.0000 105.0000 Du        
  22656 ****       130.0000 142.0000 105.2500 Du        
  22657 ****       130.0000 142.0000 105.5000 Du        
  22658 ****       130.0000 142.0000 105.7500 Du        
  22659 ****       130.0000 142.0000 106.0000 Du        
  22660 ****       130.0000 142.2500 102.2500 Du        
  22661 ****       130.0000 142.2500 102.5000 Du        
  22662 ****       130.0000 142.2500 102.7500 Du        
  22663 ****       130.0000 142.2500 103.0000 Du        
  22664 ****       130.0000 142.2500 103.2500 Du        
  22665 ****       130.0000 142.2500 103.5000 Du        
  22666 ****       130.0000 142.2500 103.7500 Du        
  22667 ****       130.0000 142.2500 104.0000 Du        
  22668 ****       130.0000 142.2500 104.2500 Du        
  22669 ****       130.0000 142.2500 104.5000 Du        
  22670 ****       130.0000 142.2500 104.7500 Du        
  22671 ****       130.0000 142.2500 105.0000 Du        
  22672 ****       130.0000 142.2500 105.2500 Du        
  22673 ****       130.0000 142.2500 105.5000 Du        
  22674 ****       130.0000 142.2500 105.7500 Du        
  22675 ****       130.0000 142.2500 106.0000 Du        
  22676 ****       130.0000 142.5000 102.2500 Du        
  22677 ****       130.0000 142.5000 102.5000 Du        
  22678 ****       130.0000 142.5000 102.7500 Du        
  22679 ****       130.0000 142.5000 103.0000 Du        
  22680 ****       130.0000 142.5000 103.2500 Du        
  22681 ****       130.0000 142.5000 103.5000 Du        
  22682 ****       130.0000 142.5000 103.7500 Du        
  22683 ****       130.0000 142.5000 104.0000 Du        
  22684 ****       130.0000 142.5000 104.2500 Du        
  22685 ****       130.0000 142.5000 104.5000 Du        
  22686 ****       130.0000 142.5000 104.7500 Du        
  22687 ****       130.0000 142.5000 105.0000 Du        
  22688 ****       130.0000 142.5000 105.2500 Du        
  22689 ****       130.0000 142.5000 105.5000 Du        
  22690 ****       130.0000 142.5000 105.7500 Du        
  22691 ****       130.0000 142.5000 106.0000 Du        
  22692 ****       130.0000 142.7500 102.0000 Du        
  22693 ****       130.0000 142.7500 102.2500 Du        
  22694 ****       130.0000 142.7500 102.5000 Du        
  22695 ****       130.0000 142.7500 102.7500 Du        
  22696 ****       130.0000 142.7500 103.0000 Du        
  22697 ****       130.0000 142.7500 103.2500 Du        
  22698 ****       130.0000 142.7500 103.5000 Du        
  22699 ****       130.0000 142.7500 103.7500 Du        
  22700 ****       130.0000 142.7500 104.0000 Du        
  22701 ****       130.0000 143.0000 101.7500 Du        
  22702 ****       130.0000 143.0000 102.0000 Du        
  22703 ****       130.0000 143.0000 102.2500 Du        
  22704 ****       130.0000 143.0000 102.5000 Du        
  22705 ****       130.0000 143.0000 102.7500 Du        
  22706 ****       130.0000 143.0000 103.0000 Du        
  22707 ****       130.0000 143.2500  99.0000 Du        
  22708 ****       130.0000 143.2500  99.2500 Du        
  22709 ****       130.0000 143.2500  99.5000 Du        
  22710 ****       130.0000 143.2500  99.7500 Du        
  22711 ****       130.0000 143.2500 100.2500 Du        
  22712 ****       130.0000 143.2500 102.0000 Du        
  22713 ****       130.0000 143.2500 102.2500 Du        
  22714 ****       130.0000 143.2500 102.5000 Du        
  22715 ****       130.0000 143.5000  98.5000 Du        
  22716 ****       130.0000 143.5000  98.7500 Du        
  22717 ****       130.0000 143.5000  99.0000 Du        
  22718 ****       130.0000 143.5000  99.2500 Du        
  22719 ****       130.0000 143.5000  99.5000 Du        
  22720 ****       130.0000 143.5000  99.7500 Du        
  22721 ****       130.0000 143.5000 100.0000 Du        
  22722 ****       130.0000 143.5000 100.2500 Du        
  22723 ****       130.0000 143.5000 100.5000 Du        
  22724 ****       130.0000 143.5000 102.0000 Du        
  22725 ****       130.0000 143.7500  98.7500 Du        
  22726 ****       130.0000 143.7500  99.0000 Du        
  22727 ****       130.0000 143.7500  99.2500 Du        
  22728 ****       130.0000 143.7500  99.5000 Du        
  22729 ****       130.0000 143.7500  99.7500 Du        
  22730 ****       130.0000 143.7500 100.0000 Du        
  22731 ****       130.0000 143.7500 100.2500 Du        
  22732 ****       130.0000 143.7500 100.5000 Du        
  22733 ****       130.0000 143.7500 100.7500 Du        
  22734 ****       130.0000 144.0000  99.0000 Du        
  22735 ****       130.0000 144.0000  99.2500 Du        
  22736 ****       130.0000 144.0000  99.5000 Du        
  22737 ****       130.0000 144.0000  99.7500 Du        
  22738 ****       130.0000 144.0000 100.0000 Du        
  22739 ****       130.0000 144.0000 100.2500 Du        
  22740 ****       130.0000 144.0000 100.5000 Du        
  22741 ****       130.0000 144.2500  99.2500 Du        
  22742 ****       130.0000 144.2500  99.5000 Du        
  22743 ****       130.0000 144.2500  99.7500 Du        
  22744 ****       130.0000 144.2500 100.0000 Du        
  22745 ****       130.0000 144.2500 100.2500 Du        
  22746 ****       130.0000 144.2500 100.5000 Du        
  22747 ****       130.0000 144.2500 147.0000 Du        
  22748 ****       130.0000 144.5000  99.5000 Du        
  22749 ****       130.0000 144.5000  99.7500 Du        
  22750 ****       130.0000 144.5000 100.0000 Du        
  22751 ****       130.0000 144.5000 100.2500 Du        
  22752 ****       130.0000 144.5000 100.5000 Du        
  22753 ****       130.0000 144.5000 147.0000 Du        
  22754 ****       130.0000 144.7500  99.7500 Du        
  22755 ****       130.0000 144.7500 100.0000 Du        
  22756 ****       130.0000 144.7500 100.2500 Du        
  22757 ****       130.0000 144.7500 100.5000 Du        
  22758 ****       130.0000 145.0000  99.7500 Du        
  22759 ****       130.0000 145.0000 100.0000 Du        
  22760 ****       130.0000 145.0000 100.2500 Du        
  22761 ****       130.0000 145.0000 126.7500 Du        
  22762 ****       130.0000 145.0000 127.0000 Du        
  22763 ****       130.0000 145.2500 100.0000 Du        
  22764 ****       130.0000 145.2500 100.2500 Du        
  22765 ****       130.0000 145.2500 126.7500 Du        
  22766 ****       130.0000 145.2500 127.0000 Du        
  22767 ****       130.0000 158.2500 161.0000 Du        
  22768 ****       130.0000 158.2500 161.2500 Du        
  22769 ****       130.0000 158.5000 160.7500 Du        
  22770 ****       130.0000 158.5000 161.0000 Du        
  22771 ****       130.0000 158.5000 161.2500 Du        
  22772 ****       130.0000 158.5000 161.5000 Du        
  22773 ****       130.0000 158.7500 161.2500 Du        
  22774 ****       130.0000 158.7500 161.5000 Du        
  22775 ****       130.0000 158.7500 161.7500 Du        
  22776 ****       130.0000 159.0000 161.7500 Du        
  22777 ****       130.0000 159.0000 162.0000 Du        
  22778 ****       130.2500 121.0000 141.0000 Du        
  22779 ****       130.2500 121.0000 141.2500 Du        
  22780 ****       130.2500 121.0000 141.5000 Du        
  22781 ****       130.2500 121.0000 141.7500 Du        
  22782 ****       130.2500 121.0000 142.0000 Du        
  22783 ****       130.2500 121.0000 142.2500 Du        
  22784 ****       130.2500 121.0000 142.5000 Du        
  22785 ****       130.2500 121.0000 142.7500 Du        
  22786 ****       130.2500 121.0000 143.0000 Du        
  22787 ****       130.2500 121.0000 143.2500 Du        
  22788 ****       130.2500 121.2500 141.0000 Du        
  22789 ****       130.2500 121.2500 141.2500 Du        
  22790 ****       130.2500 121.2500 141.5000 Du        
  22791 ****       130.2500 121.2500 141.7500 Du        
  22792 ****       130.2500 121.2500 142.0000 Du        
  22793 ****       130.2500 121.2500 142.2500 Du        
  22794 ****       130.2500 121.2500 142.5000 Du        
  22795 ****       130.2500 121.2500 142.7500 Du        
  22796 ****       130.2500 121.2500 143.0000 Du        
  22797 ****       130.2500 121.2500 143.2500 Du        
  22798 ****       130.2500 121.5000 141.2500 Du        
  22799 ****       130.2500 121.5000 141.5000 Du        
  22800 ****       130.2500 121.5000 141.7500 Du        
  22801 ****       130.2500 121.5000 142.0000 Du        
  22802 ****       130.2500 121.5000 142.2500 Du        
  22803 ****       130.2500 121.5000 142.5000 Du        
  22804 ****       130.2500 121.5000 142.7500 Du        
  22805 ****       130.2500 121.5000 143.0000 Du        
  22806 ****       130.2500 121.5000 143.2500 Du        
  22807 ****       130.2500 121.7500 141.7500 Du        
  22808 ****       130.2500 121.7500 142.0000 Du        
  22809 ****       130.2500 121.7500 142.2500 Du        
  22810 ****       130.2500 121.7500 142.5000 Du        
  22811 ****       130.2500 121.7500 142.7500 Du        
  22812 ****       130.2500 121.7500 143.0000 Du        
  22813 ****       130.2500 121.7500 143.2500 Du        
  22814 ****       130.2500 121.7500 143.5000 Du        
  22815 ****       130.2500 121.7500 143.7500 Du        
  22816 ****       130.2500 122.0000 142.7500 Du        
  22817 ****       130.2500 122.0000 143.0000 Du        
  22818 ****       130.2500 122.0000 143.2500 Du        
  22819 ****       130.2500 122.0000 144.0000 Du        
  22820 ****       130.2500 122.2500 143.2500 Du        
  22821 ****       130.2500 126.5000  97.5000 Du        
  22822 ****       130.2500 126.5000  97.7500 Du        
  22823 ****       130.2500 126.5000  98.0000 Du        
  22824 ****       130.2500 126.5000  98.2500 Du        
  22825 ****       130.2500 126.5000  98.5000 Du        
  22826 ****       130.2500 126.7500  97.2500 Du        
  22827 ****       130.2500 126.7500  97.5000 Du        
  22828 ****       130.2500 126.7500  97.7500 Du        
  22829 ****       130.2500 126.7500  98.0000 Du        
  22830 ****       130.2500 126.7500  98.2500 Du        
  22831 ****       130.2500 126.7500  98.5000 Du        
  22832 ****       130.2500 126.7500 165.5000 Du        
  22833 ****       130.2500 126.7500 167.7500 Du        
  22834 ****       130.2500 126.7500 168.0000 Du        
  22835 ****       130.2500 126.7500 168.2500 Du        
  22836 ****       130.2500 126.7500 168.5000 Du        
  22837 ****       130.2500 127.0000  97.2500 Du        
  22838 ****       130.2500 127.0000  97.5000 Du        
  22839 ****       130.2500 127.0000  97.7500 Du        
  22840 ****       130.2500 127.0000  98.0000 Du        
  22841 ****       130.2500 127.0000  98.2500 Du        
  22842 ****       130.2500 127.0000  98.5000 Du        
  22843 ****       130.2500 127.0000 165.2500 Du        
  22844 ****       130.2500 127.0000 165.5000 Du        
  22845 ****       130.2500 127.0000 165.7500 Du        
  22846 ****       130.2500 127.0000 166.0000 Du        
  22847 ****       130.2500 127.0000 166.2500 Du        
  22848 ****       130.2500 127.0000 166.5000 Du        
  22849 ****       130.2500 127.0000 166.7500 Du        
  22850 ****       130.2500 127.0000 167.0000 Du        
  22851 ****       130.2500 127.0000 167.2500 Du        
  22852 ****       130.2500 127.0000 167.5000 Du        
  22853 ****       130.2500 127.0000 167.7500 Du        
  22854 ****       130.2500 127.0000 168.0000 Du        
  22855 ****       130.2500 127.0000 168.2500 Du        
  22856 ****       130.2500 127.0000 168.5000 Du        
  22857 ****       130.2500 127.2500  97.2500 Du        
  22858 ****       130.2500 127.2500  97.5000 Du        
  22859 ****       130.2500 127.2500  97.7500 Du        
  22860 ****       130.2500 127.2500  98.0000 Du        
  22861 ****       130.2500 127.2500  98.2500 Du        
  22862 ****       130.2500 127.2500  98.5000 Du        
  22863 ****       130.2500 127.2500 165.2500 Du        
  22864 ****       130.2500 127.2500 165.5000 Du        
  22865 ****       130.2500 127.2500 165.7500 Du        
  22866 ****       130.2500 127.2500 166.0000 Du        
  22867 ****       130.2500 127.2500 166.2500 Du        
  22868 ****       130.2500 127.2500 166.5000 Du        
  22869 ****       130.2500 127.2500 166.7500 Du        
  22870 ****       130.2500 127.2500 167.0000 Du        
  22871 ****       130.2500 127.2500 167.2500 Du        
  22872 ****       130.2500 127.2500 167.5000 Du        
  22873 ****       130.2500 127.2500 167.7500 Du        
  22874 ****       130.2500 127.2500 168.0000 Du        
  22875 ****       130.2500 127.2500 168.2500 Du        
  22876 ****       130.2500 127.2500 168.5000 Du        
  22877 ****       130.2500 127.5000  97.5000 Du        
  22878 ****       130.2500 127.5000  97.7500 Du        
  22879 ****       130.2500 127.5000  98.0000 Du        
  22880 ****       130.2500 127.5000  98.2500 Du        
  22881 ****       130.2500 127.5000  98.5000 Du        
  22882 ****       130.2500 127.5000 165.0000 Du        
  22883 ****       130.2500 127.5000 165.2500 Du        
  22884 ****       130.2500 127.5000 165.5000 Du        
  22885 ****       130.2500 127.5000 165.7500 Du        
  22886 ****       130.2500 127.5000 166.0000 Du        
  22887 ****       130.2500 127.5000 166.2500 Du        
  22888 ****       130.2500 127.5000 166.5000 Du        
  22889 ****       130.2500 127.5000 166.7500 Du        
  22890 ****       130.2500 127.5000 167.0000 Du        
  22891 ****       130.2500 127.5000 167.2500 Du        
  22892 ****       130.2500 127.5000 167.5000 Du        
  22893 ****       130.2500 127.5000 167.7500 Du        
  22894 ****       130.2500 127.5000 168.0000 Du        
  22895 ****       130.2500 127.5000 168.2500 Du        
  22896 ****       130.2500 127.5000 168.5000 Du        
  22897 ****       130.2500 127.7500  97.5000 Du        
  22898 ****       130.2500 127.7500  97.7500 Du        
  22899 ****       130.2500 127.7500  98.0000 Du        
  22900 ****       130.2500 127.7500  98.2500 Du        
  22901 ****       130.2500 127.7500 165.2500 Du        
  22902 ****       130.2500 127.7500 165.5000 Du        
  22903 ****       130.2500 127.7500 165.7500 Du        
  22904 ****       130.2500 127.7500 166.0000 Du        
  22905 ****       130.2500 127.7500 166.2500 Du        
  22906 ****       130.2500 127.7500 166.5000 Du        
  22907 ****       130.2500 127.7500 166.7500 Du        
  22908 ****       130.2500 127.7500 167.0000 Du        
  22909 ****       130.2500 127.7500 167.2500 Du        
  22910 ****       130.2500 127.7500 167.5000 Du        
  22911 ****       130.2500 127.7500 167.7500 Du        
  22912 ****       130.2500 127.7500 168.0000 Du        
  22913 ****       130.2500 127.7500 168.2500 Du        
  22914 ****       130.2500 128.0000 165.5000 Du        
  22915 ****       130.2500 128.0000 165.7500 Du        
  22916 ****       130.2500 128.0000 166.0000 Du        
  22917 ****       130.2500 128.0000 166.2500 Du        
  22918 ****       130.2500 128.0000 166.5000 Du        
  22919 ****       130.2500 128.0000 166.7500 Du        
  22920 ****       130.2500 128.0000 167.0000 Du        
  22921 ****       130.2500 128.0000 167.2500 Du        
  22922 ****       130.2500 128.0000 167.5000 Du        
  22923 ****       130.2500 128.0000 167.7500 Du        
  22924 ****       130.2500 128.0000 168.0000 Du        
  22925 ****       130.2500 128.2500 166.0000 Du        
  22926 ****       130.2500 128.2500 166.2500 Du        
  22927 ****       130.2500 128.2500 166.5000 Du        
  22928 ****       130.2500 128.2500 166.7500 Du        
  22929 ****       130.2500 130.7500 169.0000 Du        
  22930 ****       130.2500 130.7500 169.2500 Du        
  22931 ****       130.2500 130.7500 169.5000 Du        
  22932 ****       130.2500 131.0000 168.5000 Du        
  22933 ****       130.2500 131.0000 168.7500 Du        
  22934 ****       130.2500 131.0000 169.0000 Du        
  22935 ****       130.2500 131.0000 169.2500 Du        
  22936 ****       130.2500 131.0000 169.5000 Du        
  22937 ****       130.2500 131.0000 169.7500 Du        
  22938 ****       130.2500 131.2500 167.5000 Du        
  22939 ****       130.2500 131.2500 167.7500 Du        
  22940 ****       130.2500 131.2500 168.0000 Du        
  22941 ****       130.2500 131.2500 168.2500 Du        
  22942 ****       130.2500 131.2500 168.5000 Du        
  22943 ****       130.2500 131.2500 168.7500 Du        
  22944 ****       130.2500 131.2500 169.0000 Du        
  22945 ****       130.2500 131.2500 169.2500 Du        
  22946 ****       130.2500 131.2500 169.5000 Du        
  22947 ****       130.2500 131.2500 169.7500 Du        
  22948 ****       130.2500 131.5000 167.2500 Du        
  22949 ****       130.2500 131.5000 167.5000 Du        
  22950 ****       130.2500 131.5000 167.7500 Du        
  22951 ****       130.2500 131.5000 168.0000 Du        
  22952 ****       130.2500 131.5000 168.2500 Du        
  22953 ****       130.2500 131.5000 168.5000 Du        
  22954 ****       130.2500 131.5000 168.7500 Du        
  22955 ****       130.2500 131.5000 169.0000 Du        
  22956 ****       130.2500 131.5000 169.2500 Du        
  22957 ****       130.2500 131.5000 169.5000 Du        
  22958 ****       130.2500 131.5000 169.7500 Du        
  22959 ****       130.2500 131.7500 167.2500 Du        
  22960 ****       130.2500 131.7500 167.5000 Du        
  22961 ****       130.2500 131.7500 167.7500 Du        
  22962 ****       130.2500 131.7500 168.0000 Du        
  22963 ****       130.2500 131.7500 168.2500 Du        
  22964 ****       130.2500 131.7500 169.2500 Du        
  22965 ****       130.2500 131.7500 169.5000 Du        
  22966 ****       130.2500 132.0000 167.2500 Du        
  22967 ****       130.2500 132.2500 138.2500 Du        
  22968 ****       130.2500 132.2500 138.5000 Du        
  22969 ****       130.2500 132.2500 138.7500 Du        
  22970 ****       130.2500 132.5000 138.5000 Du        
  22971 ****       130.2500 132.5000 138.7500 Du        
  22972 ****       130.2500 132.5000 139.0000 Du        
  22973 ****       130.2500 132.5000 139.2500 Du        
  22974 ****       130.2500 132.5000 155.7500 Du        
  22975 ****       130.2500 132.7500 138.7500 Du        
  22976 ****       130.2500 132.7500 139.0000 Du        
  22977 ****       130.2500 132.7500 139.2500 Du        
  22978 ****       130.2500 132.7500 139.5000 Du        
  22979 ****       130.2500 132.7500 139.7500 Du        
  22980 ****       130.2500 132.7500 140.0000 Du        
  22981 ****       130.2500 132.7500 155.5000 Du        
  22982 ****       130.2500 132.7500 155.7500 Du        
  22983 ****       130.2500 132.7500 156.0000 Du        
  22984 ****       130.2500 133.0000 138.7500 Du        
  22985 ****       130.2500 133.0000 139.0000 Du        
  22986 ****       130.2500 133.0000 139.2500 Du        
  22987 ****       130.2500 133.0000 139.5000 Du        
  22988 ****       130.2500 133.0000 139.7500 Du        
  22989 ****       130.2500 133.0000 140.0000 Du        
  22990 ****       130.2500 133.0000 140.2500 Du        
  22991 ****       130.2500 133.0000 140.5000 Du        
  22992 ****       130.2500 133.0000 140.7500 Du        
  22993 ****       130.2500 133.0000 141.0000 Du        
  22994 ****       130.2500 133.0000 155.5000 Du        
  22995 ****       130.2500 133.0000 155.7500 Du        
  22996 ****       130.2500 133.0000 156.0000 Du        
  22997 ****       130.2500 133.0000 156.2500 Du        
  22998 ****       130.2500 133.2500 138.7500 Du        
  22999 ****       130.2500 133.2500 139.0000 Du        
  23000 ****       130.2500 133.2500 139.2500 Du        
  23001 ****       130.2500 133.2500 139.5000 Du        
  23002 ****       130.2500 133.2500 139.7500 Du        
  23003 ****       130.2500 133.2500 140.0000 Du        
  23004 ****       130.2500 133.2500 140.2500 Du        
  23005 ****       130.2500 133.2500 140.5000 Du        
  23006 ****       130.2500 133.2500 140.7500 Du        
  23007 ****       130.2500 133.2500 141.0000 Du        
  23008 ****       130.2500 133.2500 141.2500 Du        
  23009 ****       130.2500 133.2500 155.5000 Du        
  23010 ****       130.2500 133.2500 155.7500 Du        
  23011 ****       130.2500 133.2500 156.0000 Du        
  23012 ****       130.2500 133.2500 156.2500 Du        
  23013 ****       130.2500 133.2500 156.5000 Du        
  23014 ****       130.2500 133.5000 139.0000 Du        
  23015 ****       130.2500 133.5000 139.2500 Du        
  23016 ****       130.2500 133.5000 139.5000 Du        
  23017 ****       130.2500 133.5000 139.7500 Du        
  23018 ****       130.2500 133.5000 140.0000 Du        
  23019 ****       130.2500 133.5000 140.2500 Du        
  23020 ****       130.2500 133.5000 140.5000 Du        
  23021 ****       130.2500 133.5000 140.7500 Du        
  23022 ****       130.2500 133.5000 141.0000 Du        
  23023 ****       130.2500 133.5000 141.2500 Du        
  23024 ****       130.2500 133.5000 155.2500 Du        
  23025 ****       130.2500 133.5000 155.5000 Du        
  23026 ****       130.2500 133.5000 155.7500 Du        
  23027 ****       130.2500 133.5000 156.0000 Du        
  23028 ****       130.2500 133.5000 156.2500 Du        
  23029 ****       130.2500 133.5000 156.5000 Du        
  23030 ****       130.2500 133.7500 139.5000 Du        
  23031 ****       130.2500 133.7500 139.7500 Du        
  23032 ****       130.2500 133.7500 140.0000 Du        
  23033 ****       130.2500 133.7500 140.2500 Du        
  23034 ****       130.2500 133.7500 140.5000 Du        
  23035 ****       130.2500 133.7500 140.7500 Du        
  23036 ****       130.2500 133.7500 141.0000 Du        
  23037 ****       130.2500 133.7500 155.2500 Du        
  23038 ****       130.2500 133.7500 155.5000 Du        
  23039 ****       130.2500 133.7500 155.7500 Du        
  23040 ****       130.2500 133.7500 156.0000 Du        
  23041 ****       130.2500 133.7500 156.2500 Du        
  23042 ****       130.2500 133.7500 156.5000 Du        
  23043 ****       130.2500 133.7500 156.7500 Du        
  23044 ****       130.2500 134.0000 155.7500 Du        
  23045 ****       130.2500 134.0000 156.0000 Du        
  23046 ****       130.2500 134.0000 156.2500 Du        
  23047 ****       130.2500 134.0000 156.5000 Du        
  23048 ****       130.2500 134.0000 156.7500 Du        
  23049 ****       130.2500 134.2500 156.0000 Du        
  23050 ****       130.2500 134.2500 156.2500 Du        
  23051 ****       130.2500 134.2500 156.5000 Du        
  23052 ****       130.2500 134.2500 156.7500 Du        
  23053 ****       130.2500 135.5000 165.0000 Du        
  23054 ****       130.2500 135.7500 165.0000 Du        
  23055 ****       130.2500 136.0000 165.0000 Du        
  23056 ****       130.2500 136.2500 164.7500 Du        
  23057 ****       130.2500 136.2500 165.0000 Du        
  23058 ****       130.2500 136.2500 165.2500 Du        
  23059 ****       130.2500 136.5000 165.0000 Du        
  23060 ****       130.2500 136.5000 165.2500 Du        
  23061 ****       130.2500 136.7500 165.0000 Du        
  23062 ****       130.2500 136.7500 165.2500 Du        
  23063 ****       130.2500 137.0000 165.2500 Du        
  23064 ****       130.2500 139.2500 104.2500 Du        
  23065 ****       130.2500 139.2500 104.5000 Du        
  23066 ****       130.2500 139.2500 104.7500 Du        
  23067 ****       130.2500 139.2500 105.0000 Du        
  23068 ****       130.2500 139.2500 105.2500 Du        
  23069 ****       130.2500 139.2500 105.5000 Du        
  23070 ****       130.2500 139.5000 104.0000 Du        
  23071 ****       130.2500 139.5000 104.2500 Du        
  23072 ****       130.2500 139.5000 104.5000 Du        
  23073 ****       130.2500 139.5000 104.7500 Du        
  23074 ****       130.2500 139.5000 105.0000 Du        
  23075 ****       130.2500 139.5000 105.2500 Du        
  23076 ****       130.2500 139.5000 105.5000 Du        
  23077 ****       130.2500 139.5000 105.7500 Du        
  23078 ****       130.2500 139.7500 103.7500 Du        
  23079 ****       130.2500 139.7500 104.0000 Du        
  23080 ****       130.2500 139.7500 104.2500 Du        
  23081 ****       130.2500 139.7500 104.5000 Du        
  23082 ****       130.2500 139.7500 104.7500 Du        
  23083 ****       130.2500 139.7500 105.0000 Du        
  23084 ****       130.2500 139.7500 105.2500 Du        
  23085 ****       130.2500 139.7500 105.5000 Du        
  23086 ****       130.2500 139.7500 105.7500 Du        
  23087 ****       130.2500 140.0000 103.5000 Du        
  23088 ****       130.2500 140.0000 103.7500 Du        
  23089 ****       130.2500 140.0000 104.0000 Du        
  23090 ****       130.2500 140.0000 104.2500 Du        
  23091 ****       130.2500 140.0000 104.5000 Du        
  23092 ****       130.2500 140.0000 104.7500 Du        
  23093 ****       130.2500 140.0000 105.0000 Du        
  23094 ****       130.2500 140.0000 105.2500 Du        
  23095 ****       130.2500 140.0000 105.5000 Du        
  23096 ****       130.2500 140.0000 105.7500 Du        
  23097 ****       130.2500 140.2500 103.2500 Du        
  23098 ****       130.2500 140.2500 103.5000 Du        
  23099 ****       130.2500 140.2500 103.7500 Du        
  23100 ****       130.2500 140.2500 104.0000 Du        
  23101 ****       130.2500 140.2500 104.2500 Du        
  23102 ****       130.2500 140.2500 104.5000 Du        
  23103 ****       130.2500 140.2500 104.7500 Du        
  23104 ****       130.2500 140.2500 105.0000 Du        
  23105 ****       130.2500 140.2500 105.2500 Du        
  23106 ****       130.2500 140.2500 105.5000 Du        
  23107 ****       130.2500 140.2500 105.7500 Du        
  23108 ****       130.2500 140.2500 106.0000 Du        
  23109 ****       130.2500 140.5000 103.0000 Du        
  23110 ****       130.2500 140.5000 103.2500 Du        
  23111 ****       130.2500 140.5000 103.5000 Du        
  23112 ****       130.2500 140.5000 103.7500 Du        
  23113 ****       130.2500 140.5000 104.0000 Du        
  23114 ****       130.2500 140.5000 104.2500 Du        
  23115 ****       130.2500 140.5000 104.5000 Du        
  23116 ****       130.2500 140.5000 104.7500 Du        
  23117 ****       130.2500 140.5000 105.0000 Du        
  23118 ****       130.2500 140.5000 105.2500 Du        
  23119 ****       130.2500 140.5000 105.5000 Du        
  23120 ****       130.2500 140.5000 105.7500 Du        
  23121 ****       130.2500 140.7500 102.7500 Du        
  23122 ****       130.2500 140.7500 103.0000 Du        
  23123 ****       130.2500 140.7500 103.2500 Du        
  23124 ****       130.2500 140.7500 103.5000 Du        
  23125 ****       130.2500 140.7500 103.7500 Du        
  23126 ****       130.2500 140.7500 104.0000 Du        
  23127 ****       130.2500 140.7500 104.2500 Du        
  23128 ****       130.2500 140.7500 104.5000 Du        
  23129 ****       130.2500 140.7500 104.7500 Du        
  23130 ****       130.2500 140.7500 105.0000 Du        
  23131 ****       130.2500 140.7500 105.2500 Du        
  23132 ****       130.2500 140.7500 105.5000 Du        
  23133 ****       130.2500 140.7500 105.7500 Du        
  23134 ****       130.2500 140.7500 106.0000 Du        
  23135 ****       130.2500 141.0000 102.5000 Du        
  23136 ****       130.2500 141.0000 102.7500 Du        
  23137 ****       130.2500 141.0000 103.0000 Du        
  23138 ****       130.2500 141.0000 103.2500 Du        
  23139 ****       130.2500 141.0000 103.5000 Du        
  23140 ****       130.2500 141.0000 103.7500 Du        
  23141 ****       130.2500 141.0000 104.0000 Du        
  23142 ****       130.2500 141.0000 104.2500 Du        
  23143 ****       130.2500 141.0000 104.5000 Du        
  23144 ****       130.2500 141.0000 104.7500 Du        
  23145 ****       130.2500 141.0000 105.0000 Du        
  23146 ****       130.2500 141.0000 105.2500 Du        
  23147 ****       130.2500 141.0000 105.5000 Du        
  23148 ****       130.2500 141.0000 105.7500 Du        
  23149 ****       130.2500 141.0000 106.0000 Du        
  23150 ****       130.2500 141.2500 102.5000 Du        
  23151 ****       130.2500 141.2500 102.7500 Du        
  23152 ****       130.2500 141.2500 103.0000 Du        
  23153 ****       130.2500 141.2500 103.2500 Du        
  23154 ****       130.2500 141.2500 103.5000 Du        
  23155 ****       130.2500 141.2500 103.7500 Du        
  23156 ****       130.2500 141.2500 104.0000 Du        
  23157 ****       130.2500 141.2500 104.2500 Du        
  23158 ****       130.2500 141.2500 104.5000 Du        
  23159 ****       130.2500 141.2500 104.7500 Du        
  23160 ****       130.2500 141.2500 105.0000 Du        
  23161 ****       130.2500 141.2500 105.2500 Du        
  23162 ****       130.2500 141.2500 105.5000 Du        
  23163 ****       130.2500 141.2500 105.7500 Du        
  23164 ****       130.2500 141.2500 106.0000 Du        
  23165 ****       130.2500 141.5000 102.2500 Du        
  23166 ****       130.2500 141.5000 102.5000 Du        
  23167 ****       130.2500 141.5000 102.7500 Du        
  23168 ****       130.2500 141.5000 103.0000 Du        
  23169 ****       130.2500 141.5000 103.2500 Du        
  23170 ****       130.2500 141.5000 103.5000 Du        
  23171 ****       130.2500 141.5000 103.7500 Du        
  23172 ****       130.2500 141.5000 104.0000 Du        
  23173 ****       130.2500 141.5000 104.2500 Du        
  23174 ****       130.2500 141.5000 104.5000 Du        
  23175 ****       130.2500 141.5000 104.7500 Du        
  23176 ****       130.2500 141.5000 105.0000 Du        
  23177 ****       130.2500 141.5000 105.2500 Du        
  23178 ****       130.2500 141.5000 105.5000 Du        
  23179 ****       130.2500 141.5000 105.7500 Du        
  23180 ****       130.2500 141.5000 106.0000 Du        
  23181 ****       130.2500 141.7500 102.2500 Du        
  23182 ****       130.2500 141.7500 102.5000 Du        
  23183 ****       130.2500 141.7500 102.7500 Du        
  23184 ****       130.2500 141.7500 103.0000 Du        
  23185 ****       130.2500 141.7500 103.2500 Du        
  23186 ****       130.2500 141.7500 103.5000 Du        
  23187 ****       130.2500 141.7500 103.7500 Du        
  23188 ****       130.2500 141.7500 104.0000 Du        
  23189 ****       130.2500 141.7500 104.2500 Du        
  23190 ****       130.2500 141.7500 104.5000 Du        
  23191 ****       130.2500 141.7500 104.7500 Du        
  23192 ****       130.2500 141.7500 105.0000 Du        
  23193 ****       130.2500 141.7500 105.2500 Du        
  23194 ****       130.2500 141.7500 105.5000 Du        
  23195 ****       130.2500 141.7500 105.7500 Du        
  23196 ****       130.2500 141.7500 106.0000 Du        
  23197 ****       130.2500 142.0000 102.2500 Du        
  23198 ****       130.2500 142.0000 102.5000 Du        
  23199 ****       130.2500 142.0000 102.7500 Du        
  23200 ****       130.2500 142.0000 103.0000 Du        
  23201 ****       130.2500 142.0000 103.2500 Du        
  23202 ****       130.2500 142.0000 103.5000 Du        
  23203 ****       130.2500 142.0000 103.7500 Du        
  23204 ****       130.2500 142.0000 104.0000 Du        
  23205 ****       130.2500 142.0000 104.2500 Du        
  23206 ****       130.2500 142.0000 104.5000 Du        
  23207 ****       130.2500 142.0000 104.7500 Du        
  23208 ****       130.2500 142.0000 105.0000 Du        
  23209 ****       130.2500 142.0000 105.2500 Du        
  23210 ****       130.2500 142.0000 105.5000 Du        
  23211 ****       130.2500 142.0000 105.7500 Du        
  23212 ****       130.2500 142.0000 106.0000 Du        
  23213 ****       130.2500 142.2500 102.2500 Du        
  23214 ****       130.2500 142.2500 102.5000 Du        
  23215 ****       130.2500 142.2500 102.7500 Du        
  23216 ****       130.2500 142.2500 103.0000 Du        
  23217 ****       130.2500 142.2500 103.2500 Du        
  23218 ****       130.2500 142.2500 103.5000 Du        
  23219 ****       130.2500 142.2500 103.7500 Du        
  23220 ****       130.2500 142.2500 104.0000 Du        
  23221 ****       130.2500 142.2500 104.2500 Du        
  23222 ****       130.2500 142.2500 104.5000 Du        
  23223 ****       130.2500 142.2500 104.7500 Du        
  23224 ****       130.2500 142.2500 105.0000 Du        
  23225 ****       130.2500 142.2500 105.2500 Du        
  23226 ****       130.2500 142.2500 105.5000 Du        
  23227 ****       130.2500 142.2500 105.7500 Du        
  23228 ****       130.2500 142.2500 106.0000 Du        
  23229 ****       130.2500 142.5000 102.0000 Du        
  23230 ****       130.2500 142.5000 102.2500 Du        
  23231 ****       130.2500 142.5000 102.5000 Du        
  23232 ****       130.2500 142.5000 102.7500 Du        
  23233 ****       130.2500 142.5000 103.0000 Du        
  23234 ****       130.2500 142.5000 103.2500 Du        
  23235 ****       130.2500 142.5000 103.5000 Du        
  23236 ****       130.2500 142.5000 103.7500 Du        
  23237 ****       130.2500 142.5000 104.0000 Du        
  23238 ****       130.2500 142.5000 104.2500 Du        
  23239 ****       130.2500 142.5000 104.5000 Du        
  23240 ****       130.2500 142.5000 104.7500 Du        
  23241 ****       130.2500 142.5000 105.0000 Du        
  23242 ****       130.2500 142.5000 105.2500 Du        
  23243 ****       130.2500 142.5000 105.5000 Du        
  23244 ****       130.2500 142.5000 105.7500 Du        
  23245 ****       130.2500 142.5000 106.0000 Du        
  23246 ****       130.2500 142.7500 101.7500 Du        
  23247 ****       130.2500 142.7500 102.0000 Du        
  23248 ****       130.2500 142.7500 102.2500 Du        
  23249 ****       130.2500 142.7500 102.5000 Du        
  23250 ****       130.2500 142.7500 102.7500 Du        
  23251 ****       130.2500 142.7500 103.0000 Du        
  23252 ****       130.2500 142.7500 103.2500 Du        
  23253 ****       130.2500 142.7500 103.5000 Du        
  23254 ****       130.2500 142.7500 103.7500 Du        
  23255 ****       130.2500 142.7500 104.0000 Du        
  23256 ****       130.2500 142.7500 104.2500 Du        
  23257 ****       130.2500 142.7500 104.5000 Du        
  23258 ****       130.2500 142.7500 104.7500 Du        
  23259 ****       130.2500 142.7500 105.0000 Du        
  23260 ****       130.2500 142.7500 105.2500 Du        
  23261 ****       130.2500 142.7500 105.5000 Du        
  23262 ****       130.2500 142.7500 105.7500 Du        
  23263 ****       130.2500 142.7500 106.0000 Du        
  23264 ****       130.2500 143.0000 101.7500 Du        
  23265 ****       130.2500 143.0000 102.0000 Du        
  23266 ****       130.2500 143.0000 102.2500 Du        
  23267 ****       130.2500 143.0000 102.5000 Du        
  23268 ****       130.2500 143.0000 102.7500 Du        
  23269 ****       130.2500 143.0000 103.0000 Du        
  23270 ****       130.2500 143.0000 103.2500 Du        
  23271 ****       130.2500 143.0000 103.5000 Du        
  23272 ****       130.2500 143.2500  98.7500 Du        
  23273 ****       130.2500 143.2500  99.0000 Du        
  23274 ****       130.2500 143.2500  99.2500 Du        
  23275 ****       130.2500 143.2500  99.7500 Du        
  23276 ****       130.2500 143.2500 100.0000 Du        
  23277 ****       130.2500 143.2500 100.2500 Du        
  23278 ****       130.2500 143.2500 102.0000 Du        
  23279 ****       130.2500 143.2500 102.2500 Du        
  23280 ****       130.2500 143.2500 102.5000 Du        
  23281 ****       130.2500 143.2500 102.7500 Du        
  23282 ****       130.2500 143.5000  98.5000 Du        
  23283 ****       130.2500 143.5000  98.7500 Du        
  23284 ****       130.2500 143.5000  99.0000 Du        
  23285 ****       130.2500 143.5000  99.2500 Du        
  23286 ****       130.2500 143.5000  99.5000 Du        
  23287 ****       130.2500 143.5000  99.7500 Du        
  23288 ****       130.2500 143.5000 100.0000 Du        
  23289 ****       130.2500 143.5000 100.2500 Du        
  23290 ****       130.2500 143.7500  98.7500 Du        
  23291 ****       130.2500 143.7500  99.0000 Du        
  23292 ****       130.2500 143.7500  99.2500 Du        
  23293 ****       130.2500 143.7500  99.5000 Du        
  23294 ****       130.2500 143.7500  99.7500 Du        
  23295 ****       130.2500 143.7500 100.0000 Du        
  23296 ****       130.2500 143.7500 100.2500 Du        
  23297 ****       130.2500 144.0000  99.0000 Du        
  23298 ****       130.2500 144.0000  99.2500 Du        
  23299 ****       130.2500 144.0000  99.5000 Du        
  23300 ****       130.2500 144.0000  99.7500 Du        
  23301 ****       130.2500 144.0000 100.0000 Du        
  23302 ****       130.2500 144.0000 100.2500 Du        
  23303 ****       130.2500 144.2500  99.2500 Du        
  23304 ****       130.2500 144.2500  99.5000 Du        
  23305 ****       130.2500 144.2500  99.7500 Du        
  23306 ****       130.2500 144.2500 100.0000 Du        
  23307 ****       130.2500 144.2500 146.7500 Du        
  23308 ****       130.2500 144.2500 147.0000 Du        
  23309 ****       130.2500 144.2500 147.2500 Du        
  23310 ****       130.2500 144.5000  99.5000 Du        
  23311 ****       130.2500 144.5000  99.7500 Du        
  23312 ****       130.2500 144.5000 100.0000 Du        
  23313 ****       130.2500 144.5000 146.7500 Du        
  23314 ****       130.2500 144.5000 147.0000 Du        
  23315 ****       130.2500 144.7500  99.5000 Du        
  23316 ****       130.2500 144.7500  99.7500 Du        
  23317 ****       130.2500 144.7500 100.0000 Du        
  23318 ****       130.2500 144.7500 146.7500 Du        
  23319 ****       130.2500 144.7500 147.0000 Du        
  23320 ****       130.2500 145.0000  99.7500 Du        
  23321 ****       130.2500 145.0000 100.0000 Du        
  23322 ****       130.2500 145.0000 126.7500 Du        
  23323 ****       130.2500 145.2500 126.7500 Du        
  23324 ****       130.2500 145.2500 127.0000 Du        
  23325 ****       130.2500 158.5000 160.7500 Du        
  23326 ****       130.2500 158.5000 161.0000 Du        
  23327 ****       130.2500 158.5000 161.2500 Du        
  23328 ****       130.2500 158.7500 160.7500 Du        
  23329 ****       130.2500 158.7500 161.0000 Du        
  23330 ****       130.2500 158.7500 161.2500 Du        
  23331 ****       130.2500 158.7500 161.5000 Du        
  23332 ****       130.2500 159.0000 161.0000 Du        
  23333 ****       130.2500 159.0000 161.2500 Du        
  23334 ****       130.2500 159.0000 161.5000 Du        
  23335 ****       130.5000 121.0000 141.0000 Du        
  23336 ****       130.5000 121.0000 141.2500 Du        
  23337 ****       130.5000 121.0000 141.5000 Du        
  23338 ****       130.5000 121.0000 141.7500 Du        
  23339 ****       130.5000 121.0000 142.0000 Du        
  23340 ****       130.5000 121.0000 142.2500 Du        
  23341 ****       130.5000 121.0000 142.5000 Du        
  23342 ****       130.5000 121.0000 142.7500 Du        
  23343 ****       130.5000 121.0000 143.0000 Du        
  23344 ****       130.5000 121.0000 143.2500 Du        
  23345 ****       130.5000 121.0000 143.5000 Du        
  23346 ****       130.5000 121.0000 143.7500 Du        
  23347 ****       130.5000 121.2500 141.0000 Du        
  23348 ****       130.5000 121.2500 141.2500 Du        
  23349 ****       130.5000 121.2500 141.5000 Du        
  23350 ****       130.5000 121.2500 141.7500 Du        
  23351 ****       130.5000 121.2500 142.0000 Du        
  23352 ****       130.5000 121.2500 142.2500 Du        
  23353 ****       130.5000 121.2500 142.5000 Du        
  23354 ****       130.5000 121.2500 142.7500 Du        
  23355 ****       130.5000 121.2500 143.0000 Du        
  23356 ****       130.5000 121.2500 143.2500 Du        
  23357 ****       130.5000 121.2500 143.5000 Du        
  23358 ****       130.5000 121.2500 143.7500 Du        
  23359 ****       130.5000 121.2500 144.0000 Du        
  23360 ****       130.5000 121.5000 141.2500 Du        
  23361 ****       130.5000 121.5000 141.5000 Du        
  23362 ****       130.5000 121.5000 141.7500 Du        
  23363 ****       130.5000 121.5000 142.0000 Du        
  23364 ****       130.5000 121.5000 142.2500 Du        
  23365 ****       130.5000 121.5000 142.5000 Du        
  23366 ****       130.5000 121.5000 142.7500 Du        
  23367 ****       130.5000 121.5000 143.0000 Du        
  23368 ****       130.5000 121.5000 143.2500 Du        
  23369 ****       130.5000 121.5000 143.5000 Du        
  23370 ****       130.5000 121.5000 143.7500 Du        
  23371 ****       130.5000 121.5000 144.0000 Du        
  23372 ****       130.5000 121.7500 142.0000 Du        
  23373 ****       130.5000 121.7500 142.2500 Du        
  23374 ****       130.5000 121.7500 142.5000 Du        
  23375 ****       130.5000 121.7500 142.7500 Du        
  23376 ****       130.5000 121.7500 143.0000 Du        
  23377 ****       130.5000 121.7500 143.2500 Du        
  23378 ****       130.5000 121.7500 143.5000 Du        
  23379 ****       130.5000 121.7500 143.7500 Du        
  23380 ****       130.5000 121.7500 144.0000 Du        
  23381 ****       130.5000 122.0000 142.7500 Du        
  23382 ****       130.5000 122.0000 143.0000 Du        
  23383 ****       130.5000 122.0000 143.2500 Du        
  23384 ****       130.5000 122.0000 143.5000 Du        
  23385 ****       130.5000 122.0000 143.7500 Du        
  23386 ****       130.5000 122.0000 144.0000 Du        
  23387 ****       130.5000 122.0000 144.2500 Du        
  23388 ****       130.5000 122.2500 143.0000 Du        
  23389 ****       130.5000 122.2500 143.2500 Du        
  23390 ****       130.5000 122.2500 143.7500 Du        
  23391 ****       130.5000 122.2500 144.0000 Du        
  23392 ****       130.5000 122.2500 144.2500 Du        
  23393 ****       130.5000 126.5000  97.5000 Du        
  23394 ****       130.5000 126.5000  97.7500 Du        
  23395 ****       130.5000 126.7500  97.2500 Du        
  23396 ****       130.5000 126.7500  97.5000 Du        
  23397 ****       130.5000 126.7500  97.7500 Du        
  23398 ****       130.5000 126.7500  98.0000 Du        
  23399 ****       130.5000 126.7500 165.5000 Du        
  23400 ****       130.5000 126.7500 165.7500 Du        
  23401 ****       130.5000 126.7500 166.0000 Du        
  23402 ****       130.5000 126.7500 167.5000 Du        
  23403 ****       130.5000 126.7500 167.7500 Du        
  23404 ****       130.5000 126.7500 168.0000 Du        
  23405 ****       130.5000 126.7500 168.2500 Du        
  23406 ****       130.5000 126.7500 168.5000 Du        
  23407 ****       130.5000 127.0000  97.5000 Du        
  23408 ****       130.5000 127.0000  97.7500 Du        
  23409 ****       130.5000 127.0000  98.0000 Du        
  23410 ****       130.5000 127.0000 165.2500 Du        
  23411 ****       130.5000 127.0000 165.5000 Du        
  23412 ****       130.5000 127.0000 165.7500 Du        
  23413 ****       130.5000 127.0000 166.0000 Du        
  23414 ****       130.5000 127.0000 166.2500 Du        
  23415 ****       130.5000 127.0000 166.5000 Du        
  23416 ****       130.5000 127.0000 166.7500 Du        
  23417 ****       130.5000 127.0000 167.0000 Du        
  23418 ****       130.5000 127.0000 167.2500 Du        
  23419 ****       130.5000 127.0000 167.5000 Du        
  23420 ****       130.5000 127.0000 167.7500 Du        
  23421 ****       130.5000 127.0000 168.0000 Du        
  23422 ****       130.5000 127.0000 168.2500 Du        
  23423 ****       130.5000 127.0000 168.5000 Du        
  23424 ****       130.5000 127.2500  97.5000 Du        
  23425 ****       130.5000 127.2500  97.7500 Du        
  23426 ****       130.5000 127.2500  98.0000 Du        
  23427 ****       130.5000 127.2500 165.2500 Du        
  23428 ****       130.5000 127.2500 165.5000 Du        
  23429 ****       130.5000 127.2500 165.7500 Du        
  23430 ****       130.5000 127.2500 166.0000 Du        
  23431 ****       130.5000 127.2500 166.2500 Du        
  23432 ****       130.5000 127.2500 166.5000 Du        
  23433 ****       130.5000 127.2500 166.7500 Du        
  23434 ****       130.5000 127.2500 167.0000 Du        
  23435 ****       130.5000 127.2500 167.2500 Du        
  23436 ****       130.5000 127.2500 167.5000 Du        
  23437 ****       130.5000 127.2500 167.7500 Du        
  23438 ****       130.5000 127.2500 168.0000 Du        
  23439 ****       130.5000 127.2500 168.2500 Du        
  23440 ****       130.5000 127.2500 168.5000 Du        
  23441 ****       130.5000 127.5000  97.5000 Du        
  23442 ****       130.5000 127.5000  97.7500 Du        
  23443 ****       130.5000 127.5000  98.0000 Du        
  23444 ****       130.5000 127.5000 165.2500 Du        
  23445 ****       130.5000 127.5000 165.5000 Du        
  23446 ****       130.5000 127.5000 165.7500 Du        
  23447 ****       130.5000 127.5000 166.0000 Du        
  23448 ****       130.5000 127.5000 166.2500 Du        
  23449 ****       130.5000 127.5000 166.5000 Du        
  23450 ****       130.5000 127.5000 166.7500 Du        
  23451 ****       130.5000 127.5000 167.0000 Du        
  23452 ****       130.5000 127.5000 167.2500 Du        
  23453 ****       130.5000 127.5000 167.5000 Du        
  23454 ****       130.5000 127.5000 167.7500 Du        
  23455 ****       130.5000 127.5000 168.0000 Du        
  23456 ****       130.5000 127.5000 168.2500 Du        
  23457 ****       130.5000 127.5000 168.5000 Du        
  23458 ****       130.5000 127.7500  97.7500 Du        
  23459 ****       130.5000 127.7500 165.2500 Du        
  23460 ****       130.5000 127.7500 165.5000 Du        
  23461 ****       130.5000 127.7500 165.7500 Du        
  23462 ****       130.5000 127.7500 166.0000 Du        
  23463 ****       130.5000 127.7500 166.2500 Du        
  23464 ****       130.5000 127.7500 166.5000 Du        
  23465 ****       130.5000 127.7500 166.7500 Du        
  23466 ****       130.5000 127.7500 167.0000 Du        
  23467 ****       130.5000 127.7500 167.2500 Du        
  23468 ****       130.5000 127.7500 167.5000 Du        
  23469 ****       130.5000 127.7500 167.7500 Du        
  23470 ****       130.5000 127.7500 168.0000 Du        
  23471 ****       130.5000 127.7500 168.2500 Du        
  23472 ****       130.5000 127.7500 168.5000 Du        
  23473 ****       130.5000 128.0000 165.7500 Du        
  23474 ****       130.5000 128.0000 166.0000 Du        
  23475 ****       130.5000 128.0000 166.2500 Du        
  23476 ****       130.5000 128.0000 166.5000 Du        
  23477 ****       130.5000 128.0000 166.7500 Du        
  23478 ****       130.5000 128.0000 167.0000 Du        
  23479 ****       130.5000 128.0000 167.2500 Du        
  23480 ****       130.5000 128.0000 167.5000 Du        
  23481 ****       130.5000 128.0000 167.7500 Du        
  23482 ****       130.5000 128.0000 168.0000 Du        
  23483 ****       130.5000 128.0000 168.2500 Du        
  23484 ****       130.5000 128.0000 168.5000 Du        
  23485 ****       130.5000 128.2500 166.0000 Du        
  23486 ****       130.5000 128.2500 166.2500 Du        
  23487 ****       130.5000 128.2500 166.5000 Du        
  23488 ****       130.5000 128.2500 166.7500 Du        
  23489 ****       130.5000 128.2500 167.0000 Du        
  23490 ****       130.5000 128.2500 167.2500 Du        
  23491 ****       130.5000 128.2500 167.5000 Du        
  23492 ****       130.5000 128.2500 167.7500 Du        
  23493 ****       130.5000 128.2500 168.0000 Du        
  23494 ****       130.5000 128.2500 168.2500 Du        
  23495 ****       130.5000 128.5000 166.7500 Du        
  23496 ****       130.5000 130.0000 154.7500 Du        
  23497 ****       130.5000 130.0000 155.0000 Du        
  23498 ****       130.5000 130.2500 154.7500 Du        
  23499 ****       130.5000 130.2500 155.0000 Du        
  23500 ****       130.5000 130.5000 168.7500 Du        
  23501 ****       130.5000 130.5000 169.0000 Du        
  23502 ****       130.5000 130.7500 168.0000 Du        
  23503 ****       130.5000 130.7500 168.2500 Du        
  23504 ****       130.5000 130.7500 168.5000 Du        
  23505 ****       130.5000 130.7500 168.7500 Du        
  23506 ****       130.5000 130.7500 169.0000 Du        
  23507 ****       130.5000 130.7500 169.2500 Du        
  23508 ****       130.5000 130.7500 169.5000 Du        
  23509 ****       130.5000 131.0000 167.2500 Du        
  23510 ****       130.5000 131.0000 167.5000 Du        
  23511 ****       130.5000 131.0000 167.7500 Du        
  23512 ****       130.5000 131.0000 168.0000 Du        
  23513 ****       130.5000 131.0000 168.2500 Du        
  23514 ****       130.5000 131.0000 168.5000 Du        
  23515 ****       130.5000 131.0000 168.7500 Du        
  23516 ****       130.5000 131.0000 169.0000 Du        
  23517 ****       130.5000 131.0000 169.2500 Du        
  23518 ****       130.5000 131.0000 169.5000 Du        
  23519 ****       130.5000 131.0000 169.7500 Du        
  23520 ****       130.5000 131.2500 167.2500 Du        
  23521 ****       130.5000 131.2500 167.5000 Du        
  23522 ****       130.5000 131.2500 167.7500 Du        
  23523 ****       130.5000 131.2500 168.0000 Du        
  23524 ****       130.5000 131.2500 168.2500 Du        
  23525 ****       130.5000 131.2500 168.5000 Du        
  23526 ****       130.5000 131.2500 168.7500 Du        
  23527 ****       130.5000 131.2500 169.0000 Du        
  23528 ****       130.5000 131.2500 169.2500 Du        
  23529 ****       130.5000 131.2500 169.5000 Du        
  23530 ****       130.5000 131.2500 169.7500 Du        
  23531 ****       130.5000 131.5000 167.0000 Du        
  23532 ****       130.5000 131.5000 167.2500 Du        
  23533 ****       130.5000 131.5000 167.5000 Du        
  23534 ****       130.5000 131.5000 167.7500 Du        
  23535 ****       130.5000 131.5000 168.0000 Du        
  23536 ****       130.5000 131.5000 168.2500 Du        
  23537 ****       130.5000 131.5000 168.5000 Du        
  23538 ****       130.5000 131.5000 168.7500 Du        
  23539 ****       130.5000 131.5000 169.0000 Du        
  23540 ****       130.5000 131.5000 169.2500 Du        
  23541 ****       130.5000 131.5000 169.5000 Du        
  23542 ****       130.5000 131.5000 169.7500 Du        
  23543 ****       130.5000 131.7500 137.0000 Du        
  23544 ****       130.5000 131.7500 137.2500 Du        
  23545 ****       130.5000 131.7500 137.5000 Du        
  23546 ****       130.5000 131.7500 137.7500 Du        
  23547 ****       130.5000 131.7500 138.0000 Du        
  23548 ****       130.5000 131.7500 167.0000 Du        
  23549 ****       130.5000 131.7500 167.2500 Du        
  23550 ****       130.5000 131.7500 167.5000 Du        
  23551 ****       130.5000 131.7500 167.7500 Du        
  23552 ****       130.5000 131.7500 168.0000 Du        
  23553 ****       130.5000 131.7500 168.2500 Du        
  23554 ****       130.5000 131.7500 168.5000 Du        
  23555 ****       130.5000 131.7500 168.7500 Du        
  23556 ****       130.5000 131.7500 169.0000 Du        
  23557 ****       130.5000 131.7500 169.2500 Du        
  23558 ****       130.5000 131.7500 169.5000 Du        
  23559 ****       130.5000 132.0000 137.2500 Du        
  23560 ****       130.5000 132.0000 137.5000 Du        
  23561 ****       130.5000 132.0000 137.7500 Du        
  23562 ****       130.5000 132.0000 138.0000 Du        
  23563 ****       130.5000 132.0000 138.2500 Du        
  23564 ****       130.5000 132.0000 138.5000 Du        
  23565 ****       130.5000 132.0000 138.7500 Du        
  23566 ****       130.5000 132.0000 167.0000 Du        
  23567 ****       130.5000 132.0000 167.2500 Du        
  23568 ****       130.5000 132.0000 167.5000 Du        
  23569 ****       130.5000 132.2500 137.7500 Du        
  23570 ****       130.5000 132.2500 138.0000 Du        
  23571 ****       130.5000 132.2500 138.2500 Du        
  23572 ****       130.5000 132.2500 138.5000 Du        
  23573 ****       130.5000 132.2500 138.7500 Du        
  23574 ****       130.5000 132.2500 139.0000 Du        
  23575 ****       130.5000 132.2500 139.2500 Du        
  23576 ****       130.5000 132.5000 138.0000 Du        
  23577 ****       130.5000 132.5000 138.2500 Du        
  23578 ****       130.5000 132.5000 138.5000 Du        
  23579 ****       130.5000 132.5000 138.7500 Du        
  23580 ****       130.5000 132.5000 139.0000 Du        
  23581 ****       130.5000 132.5000 139.2500 Du        
  23582 ****       130.5000 132.5000 139.5000 Du        
  23583 ****       130.5000 132.5000 139.7500 Du        
  23584 ****       130.5000 132.5000 140.0000 Du        
  23585 ****       130.5000 132.7500 138.2500 Du        
  23586 ****       130.5000 132.7500 138.5000 Du        
  23587 ****       130.5000 132.7500 138.7500 Du        
  23588 ****       130.5000 132.7500 139.0000 Du        
  23589 ****       130.5000 132.7500 139.2500 Du        
  23590 ****       130.5000 132.7500 139.5000 Du        
  23591 ****       130.5000 132.7500 139.7500 Du        
  23592 ****       130.5000 132.7500 140.0000 Du        
  23593 ****       130.5000 132.7500 140.2500 Du        
  23594 ****       130.5000 132.7500 140.5000 Du        
  23595 ****       130.5000 132.7500 155.2500 Du        
  23596 ****       130.5000 132.7500 155.5000 Du        
  23597 ****       130.5000 132.7500 155.7500 Du        
  23598 ****       130.5000 133.0000 138.2500 Du        
  23599 ****       130.5000 133.0000 138.5000 Du        
  23600 ****       130.5000 133.0000 138.7500 Du        
  23601 ****       130.5000 133.0000 139.0000 Du        
  23602 ****       130.5000 133.0000 139.2500 Du        
  23603 ****       130.5000 133.0000 139.5000 Du        
  23604 ****       130.5000 133.0000 139.7500 Du        
  23605 ****       130.5000 133.0000 140.0000 Du        
  23606 ****       130.5000 133.0000 140.2500 Du        
  23607 ****       130.5000 133.0000 140.5000 Du        
  23608 ****       130.5000 133.0000 140.7500 Du        
  23609 ****       130.5000 133.0000 141.0000 Du        
  23610 ****       130.5000 133.0000 141.2500 Du        
  23611 ****       130.5000 133.0000 155.0000 Du        
  23612 ****       130.5000 133.0000 155.2500 Du        
  23613 ****       130.5000 133.0000 155.5000 Du        
  23614 ****       130.5000 133.0000 155.7500 Du        
  23615 ****       130.5000 133.0000 156.0000 Du        
  23616 ****       130.5000 133.2500 138.5000 Du        
  23617 ****       130.5000 133.2500 138.7500 Du        
  23618 ****       130.5000 133.2500 139.0000 Du        
  23619 ****       130.5000 133.2500 139.2500 Du        
  23620 ****       130.5000 133.2500 139.5000 Du        
  23621 ****       130.5000 133.2500 139.7500 Du        
  23622 ****       130.5000 133.2500 140.0000 Du        
  23623 ****       130.5000 133.2500 140.2500 Du        
  23624 ****       130.5000 133.2500 140.5000 Du        
  23625 ****       130.5000 133.2500 140.7500 Du        
  23626 ****       130.5000 133.2500 141.0000 Du        
  23627 ****       130.5000 133.2500 141.2500 Du        
  23628 ****       130.5000 133.2500 155.0000 Du        
  23629 ****       130.5000 133.2500 155.2500 Du        
  23630 ****       130.5000 133.2500 155.5000 Du        
  23631 ****       130.5000 133.2500 155.7500 Du        
  23632 ****       130.5000 133.2500 156.0000 Du        
  23633 ****       130.5000 133.2500 156.2500 Du        
  23634 ****       130.5000 133.5000 138.7500 Du        
  23635 ****       130.5000 133.5000 139.0000 Du        
  23636 ****       130.5000 133.5000 139.2500 Du        
  23637 ****       130.5000 133.5000 139.5000 Du        
  23638 ****       130.5000 133.5000 139.7500 Du        
  23639 ****       130.5000 133.5000 140.0000 Du        
  23640 ****       130.5000 133.5000 140.2500 Du        
  23641 ****       130.5000 133.5000 140.5000 Du        
  23642 ****       130.5000 133.5000 140.7500 Du        
  23643 ****       130.5000 133.5000 141.0000 Du        
  23644 ****       130.5000 133.5000 141.2500 Du        
  23645 ****       130.5000 133.5000 154.7500 Du        
  23646 ****       130.5000 133.5000 155.0000 Du        
  23647 ****       130.5000 133.5000 155.2500 Du        
  23648 ****       130.5000 133.5000 155.5000 Du        
  23649 ****       130.5000 133.5000 155.7500 Du        
  23650 ****       130.5000 133.5000 156.0000 Du        
  23651 ****       130.5000 133.5000 156.2500 Du        
  23652 ****       130.5000 133.5000 156.5000 Du        
  23653 ****       130.5000 133.7500 139.0000 Du        
  23654 ****       130.5000 133.7500 139.2500 Du        
  23655 ****       130.5000 133.7500 139.5000 Du        
  23656 ****       130.5000 133.7500 139.7500 Du        
  23657 ****       130.5000 133.7500 140.0000 Du        
  23658 ****       130.5000 133.7500 140.2500 Du        
  23659 ****       130.5000 133.7500 140.5000 Du        
  23660 ****       130.5000 133.7500 140.7500 Du        
  23661 ****       130.5000 133.7500 141.0000 Du        
  23662 ****       130.5000 133.7500 141.2500 Du        
  23663 ****       130.5000 133.7500 155.0000 Du        
  23664 ****       130.5000 133.7500 155.2500 Du        
  23665 ****       130.5000 133.7500 155.5000 Du        
  23666 ****       130.5000 133.7500 155.7500 Du        
  23667 ****       130.5000 133.7500 156.0000 Du        
  23668 ****       130.5000 133.7500 156.2500 Du        
  23669 ****       130.5000 133.7500 156.5000 Du        
  23670 ****       130.5000 134.0000 139.5000 Du        
  23671 ****       130.5000 134.0000 139.7500 Du        
  23672 ****       130.5000 134.0000 140.0000 Du        
  23673 ****       130.5000 134.0000 140.2500 Du        
  23674 ****       130.5000 134.0000 140.5000 Du        
  23675 ****       130.5000 134.0000 155.5000 Du        
  23676 ****       130.5000 134.0000 155.7500 Du        
  23677 ****       130.5000 134.0000 156.0000 Du        
  23678 ****       130.5000 134.0000 156.2500 Du        
  23679 ****       130.5000 134.0000 156.5000 Du        
  23680 ****       130.5000 134.0000 156.7500 Du        
  23681 ****       130.5000 134.2500 155.7500 Du        
  23682 ****       130.5000 134.2500 156.0000 Du        
  23683 ****       130.5000 134.2500 156.2500 Du        
  23684 ****       130.5000 134.2500 156.5000 Du        
  23685 ****       130.5000 134.2500 156.7500 Du        
  23686 ****       130.5000 135.2500 165.0000 Du        
  23687 ****       130.5000 135.2500 165.2500 Du        
  23688 ****       130.5000 135.5000 165.0000 Du        
  23689 ****       130.5000 135.5000 165.2500 Du        
  23690 ****       130.5000 135.7500 165.0000 Du        
  23691 ****       130.5000 135.7500 165.2500 Du        
  23692 ****       130.5000 136.0000 164.7500 Du        
  23693 ****       130.5000 136.0000 165.0000 Du        
  23694 ****       130.5000 136.0000 165.2500 Du        
  23695 ****       130.5000 136.2500 164.7500 Du        
  23696 ****       130.5000 136.2500 165.0000 Du        
  23697 ****       130.5000 136.2500 165.2500 Du        
  23698 ****       130.5000 136.5000 165.0000 Du        
  23699 ****       130.5000 136.5000 165.2500 Du        
  23700 ****       130.5000 136.7500 165.0000 Du        
  23701 ****       130.5000 136.7500 165.2500 Du        
  23702 ****       130.5000 136.7500 165.5000 Du        
  23703 ****       130.5000 139.2500 104.2500 Du        
  23704 ****       130.5000 139.2500 104.5000 Du        
  23705 ****       130.5000 139.2500 104.7500 Du        
  23706 ****       130.5000 139.2500 105.0000 Du        
  23707 ****       130.5000 139.2500 105.2500 Du        
  23708 ****       130.5000 139.5000 104.0000 Du        
  23709 ****       130.5000 139.5000 104.2500 Du        
  23710 ****       130.5000 139.5000 104.5000 Du        
  23711 ****       130.5000 139.5000 104.7500 Du        
  23712 ****       130.5000 139.5000 105.0000 Du        
  23713 ****       130.5000 139.5000 105.2500 Du        
  23714 ****       130.5000 139.5000 105.5000 Du        
  23715 ****       130.5000 139.5000 105.7500 Du        
  23716 ****       130.5000 139.7500 103.7500 Du        
  23717 ****       130.5000 139.7500 104.0000 Du        
  23718 ****       130.5000 139.7500 104.2500 Du        
  23719 ****       130.5000 139.7500 104.5000 Du        
  23720 ****       130.5000 139.7500 104.7500 Du        
  23721 ****       130.5000 139.7500 105.0000 Du        
  23722 ****       130.5000 139.7500 105.2500 Du        
  23723 ****       130.5000 139.7500 105.5000 Du        
  23724 ****       130.5000 139.7500 105.7500 Du        
  23725 ****       130.5000 139.7500 106.0000 Du        
  23726 ****       130.5000 140.0000 103.5000 Du        
  23727 ****       130.5000 140.0000 103.7500 Du        
  23728 ****       130.5000 140.0000 104.0000 Du        
  23729 ****       130.5000 140.0000 104.2500 Du        
  23730 ****       130.5000 140.0000 104.5000 Du        
  23731 ****       130.5000 140.0000 104.7500 Du        
  23732 ****       130.5000 140.0000 105.0000 Du        
  23733 ****       130.5000 140.0000 105.2500 Du        
  23734 ****       130.5000 140.0000 105.5000 Du        
  23735 ****       130.5000 140.0000 105.7500 Du        
  23736 ****       130.5000 140.0000 106.0000 Du        
  23737 ****       130.5000 140.2500 103.2500 Du        
  23738 ****       130.5000 140.2500 103.5000 Du        
  23739 ****       130.5000 140.2500 103.7500 Du        
  23740 ****       130.5000 140.2500 104.0000 Du        
  23741 ****       130.5000 140.2500 104.2500 Du        
  23742 ****       130.5000 140.2500 104.5000 Du        
  23743 ****       130.5000 140.2500 104.7500 Du        
  23744 ****       130.5000 140.2500 105.0000 Du        
  23745 ****       130.5000 140.2500 105.2500 Du        
  23746 ****       130.5000 140.2500 105.5000 Du        
  23747 ****       130.5000 140.2500 105.7500 Du        
  23748 ****       130.5000 140.2500 106.0000 Du        
  23749 ****       130.5000 140.5000 103.0000 Du        
  23750 ****       130.5000 140.5000 103.2500 Du        
  23751 ****       130.5000 140.5000 103.5000 Du        
  23752 ****       130.5000 140.5000 103.7500 Du        
  23753 ****       130.5000 140.5000 104.0000 Du        
  23754 ****       130.5000 140.5000 104.2500 Du        
  23755 ****       130.5000 140.5000 104.5000 Du        
  23756 ****       130.5000 140.5000 104.7500 Du        
  23757 ****       130.5000 140.5000 105.0000 Du        
  23758 ****       130.5000 140.5000 105.2500 Du        
  23759 ****       130.5000 140.5000 105.5000 Du        
  23760 ****       130.5000 140.5000 105.7500 Du        
  23761 ****       130.5000 140.5000 106.0000 Du        
  23762 ****       130.5000 140.7500 102.7500 Du        
  23763 ****       130.5000 140.7500 103.0000 Du        
  23764 ****       130.5000 140.7500 103.2500 Du        
  23765 ****       130.5000 140.7500 103.5000 Du        
  23766 ****       130.5000 140.7500 103.7500 Du        
  23767 ****       130.5000 140.7500 104.0000 Du        
  23768 ****       130.5000 140.7500 104.2500 Du        
  23769 ****       130.5000 140.7500 104.5000 Du        
  23770 ****       130.5000 140.7500 104.7500 Du        
  23771 ****       130.5000 140.7500 105.0000 Du        
  23772 ****       130.5000 140.7500 105.2500 Du        
  23773 ****       130.5000 140.7500 105.5000 Du        
  23774 ****       130.5000 140.7500 105.7500 Du        
  23775 ****       130.5000 140.7500 106.0000 Du        
  23776 ****       130.5000 141.0000 102.5000 Du        
  23777 ****       130.5000 141.0000 102.7500 Du        
  23778 ****       130.5000 141.0000 103.0000 Du        
  23779 ****       130.5000 141.0000 103.2500 Du        
  23780 ****       130.5000 141.0000 103.5000 Du        
  23781 ****       130.5000 141.0000 103.7500 Du        
  23782 ****       130.5000 141.0000 104.0000 Du        
  23783 ****       130.5000 141.0000 104.2500 Du        
  23784 ****       130.5000 141.0000 104.5000 Du        
  23785 ****       130.5000 141.0000 104.7500 Du        
  23786 ****       130.5000 141.0000 105.0000 Du        
  23787 ****       130.5000 141.0000 105.2500 Du        
  23788 ****       130.5000 141.0000 105.5000 Du        
  23789 ****       130.5000 141.0000 105.7500 Du        
  23790 ****       130.5000 141.2500 102.5000 Du        
  23791 ****       130.5000 141.2500 102.7500 Du        
  23792 ****       130.5000 141.2500 103.0000 Du        
  23793 ****       130.5000 141.2500 103.2500 Du        
  23794 ****       130.5000 141.2500 103.5000 Du        
  23795 ****       130.5000 141.2500 103.7500 Du        
  23796 ****       130.5000 141.2500 104.0000 Du        
  23797 ****       130.5000 141.2500 104.2500 Du        
  23798 ****       130.5000 141.2500 104.5000 Du        
  23799 ****       130.5000 141.2500 104.7500 Du        
  23800 ****       130.5000 141.2500 105.0000 Du        
  23801 ****       130.5000 141.2500 105.2500 Du        
  23802 ****       130.5000 141.2500 105.5000 Du        
  23803 ****       130.5000 141.2500 105.7500 Du        
  23804 ****       130.5000 141.5000 102.5000 Du        
  23805 ****       130.5000 141.5000 102.7500 Du        
  23806 ****       130.5000 141.5000 103.0000 Du        
  23807 ****       130.5000 141.5000 103.2500 Du        
  23808 ****       130.5000 141.5000 103.5000 Du        
  23809 ****       130.5000 141.5000 103.7500 Du        
  23810 ****       130.5000 141.5000 104.0000 Du        
  23811 ****       130.5000 141.5000 104.2500 Du        
  23812 ****       130.5000 141.5000 104.5000 Du        
  23813 ****       130.5000 141.5000 104.7500 Du        
  23814 ****       130.5000 141.5000 105.0000 Du        
  23815 ****       130.5000 141.5000 105.2500 Du        
  23816 ****       130.5000 141.5000 105.5000 Du        
  23817 ****       130.5000 141.7500 102.5000 Du        
  23818 ****       130.5000 141.7500 102.7500 Du        
  23819 ****       130.5000 141.7500 103.0000 Du        
  23820 ****       130.5000 141.7500 103.2500 Du        
  23821 ****       130.5000 141.7500 103.5000 Du        
  23822 ****       130.5000 141.7500 103.7500 Du        
  23823 ****       130.5000 141.7500 104.0000 Du        
  23824 ****       130.5000 141.7500 104.2500 Du        
  23825 ****       130.5000 141.7500 104.5000 Du        
  23826 ****       130.5000 141.7500 104.7500 Du        
  23827 ****       130.5000 141.7500 105.0000 Du        
  23828 ****       130.5000 141.7500 105.2500 Du        
  23829 ****       130.5000 141.7500 105.5000 Du        
  23830 ****       130.5000 142.0000 102.5000 Du        
  23831 ****       130.5000 142.0000 102.7500 Du        
  23832 ****       130.5000 142.0000 103.0000 Du        
  23833 ****       130.5000 142.0000 103.2500 Du        
  23834 ****       130.5000 142.0000 103.5000 Du        
  23835 ****       130.5000 142.0000 103.7500 Du        
  23836 ****       130.5000 142.0000 104.0000 Du        
  23837 ****       130.5000 142.0000 104.2500 Du        
  23838 ****       130.5000 142.0000 104.5000 Du        
  23839 ****       130.5000 142.0000 104.7500 Du        
  23840 ****       130.5000 142.0000 105.0000 Du        
  23841 ****       130.5000 142.0000 105.2500 Du        
  23842 ****       130.5000 142.0000 105.5000 Du        
  23843 ****       130.5000 142.2500 102.5000 Du        
  23844 ****       130.5000 142.2500 102.7500 Du        
  23845 ****       130.5000 142.2500 103.0000 Du        
  23846 ****       130.5000 142.2500 103.2500 Du        
  23847 ****       130.5000 142.2500 103.5000 Du        
  23848 ****       130.5000 142.2500 103.7500 Du        
  23849 ****       130.5000 142.2500 104.0000 Du        
  23850 ****       130.5000 142.2500 104.2500 Du        
  23851 ****       130.5000 142.2500 104.5000 Du        
  23852 ****       130.5000 142.2500 104.7500 Du        
  23853 ****       130.5000 142.2500 105.0000 Du        
  23854 ****       130.5000 142.2500 105.2500 Du        
  23855 ****       130.5000 142.2500 105.5000 Du        
  23856 ****       130.5000 142.5000 102.5000 Du        
  23857 ****       130.5000 142.5000 102.7500 Du        
  23858 ****       130.5000 142.5000 103.0000 Du        
  23859 ****       130.5000 142.5000 103.2500 Du        
  23860 ****       130.5000 142.5000 103.5000 Du        
  23861 ****       130.5000 142.5000 103.7500 Du        
  23862 ****       130.5000 142.5000 104.0000 Du        
  23863 ****       130.5000 142.5000 104.2500 Du        
  23864 ****       130.5000 142.5000 104.5000 Du        
  23865 ****       130.5000 142.5000 104.7500 Du        
  23866 ****       130.5000 142.5000 105.0000 Du        
  23867 ****       130.5000 142.5000 105.2500 Du        
  23868 ****       130.5000 142.7500 102.2500 Du        
  23869 ****       130.5000 142.7500 102.5000 Du        
  23870 ****       130.5000 142.7500 102.7500 Du        
  23871 ****       130.5000 142.7500 103.0000 Du        
  23872 ****       130.5000 142.7500 103.2500 Du        
  23873 ****       130.5000 142.7500 103.5000 Du        
  23874 ****       130.5000 142.7500 103.7500 Du        
  23875 ****       130.5000 142.7500 104.0000 Du        
  23876 ****       130.5000 142.7500 104.2500 Du        
  23877 ****       130.5000 142.7500 104.5000 Du        
  23878 ****       130.5000 142.7500 104.7500 Du        
  23879 ****       130.5000 143.0000  99.2500 Du        
  23880 ****       130.5000 143.0000 102.0000 Du        
  23881 ****       130.5000 143.0000 102.2500 Du        
  23882 ****       130.5000 143.0000 102.5000 Du        
  23883 ****       130.5000 143.0000 102.7500 Du        
  23884 ****       130.5000 143.0000 103.0000 Du        
  23885 ****       130.5000 143.0000 103.2500 Du        
  23886 ****       130.5000 143.0000 103.5000 Du        
  23887 ****       130.5000 143.0000 103.7500 Du        
  23888 ****       130.5000 143.2500  98.7500 Du        
  23889 ****       130.5000 143.2500  99.0000 Du        
  23890 ****       130.5000 143.2500  99.2500 Du        
  23891 ****       130.5000 143.2500 102.7500 Du        
  23892 ****       130.5000 143.5000  98.2500 Du        
  23893 ****       130.5000 143.5000  98.5000 Du        
  23894 ****       130.5000 143.5000  98.7500 Du        
  23895 ****       130.5000 143.5000  99.0000 Du        
  23896 ****       130.5000 143.5000  99.2500 Du        
  23897 ****       130.5000 143.5000  99.5000 Du        
  23898 ****       130.5000 143.5000  99.7500 Du        
  23899 ****       130.5000 143.7500  98.7500 Du        
  23900 ****       130.5000 143.7500  99.0000 Du        
  23901 ****       130.5000 143.7500  99.2500 Du        
  23902 ****       130.5000 143.7500  99.5000 Du        
  23903 ****       130.5000 143.7500  99.7500 Du        
  23904 ****       130.5000 143.7500 100.0000 Du        
  23905 ****       130.5000 144.0000  99.0000 Du        
  23906 ****       130.5000 144.0000  99.2500 Du        
  23907 ****       130.5000 144.0000  99.5000 Du        
  23908 ****       130.5000 144.0000  99.7500 Du        
  23909 ****       130.5000 144.0000 146.7500 Du        
  23910 ****       130.5000 144.0000 147.0000 Du        
  23911 ****       130.5000 144.0000 147.2500 Du        
  23912 ****       130.5000 144.2500  99.2500 Du        
  23913 ****       130.5000 144.2500  99.5000 Du        
  23914 ****       130.5000 144.2500  99.7500 Du        
  23915 ****       130.5000 144.2500 146.5000 Du        
  23916 ****       130.5000 144.2500 146.7500 Du        
  23917 ****       130.5000 144.2500 147.0000 Du        
  23918 ****       130.5000 144.2500 147.2500 Du        
  23919 ****       130.5000 144.5000  99.2500 Du        
  23920 ****       130.5000 144.5000  99.5000 Du        
  23921 ****       130.5000 144.5000  99.7500 Du        
  23922 ****       130.5000 144.5000 146.5000 Du        
  23923 ****       130.5000 144.5000 146.7500 Du        
  23924 ****       130.5000 144.5000 147.0000 Du        
  23925 ****       130.5000 144.5000 147.2500 Du        
  23926 ****       130.5000 144.7500  99.5000 Du        
  23927 ****       130.5000 144.7500  99.7500 Du        
  23928 ****       130.5000 144.7500 146.5000 Du        
  23929 ****       130.5000 144.7500 146.7500 Du        
  23930 ****       130.5000 144.7500 147.0000 Du        
  23931 ****       130.5000 144.7500 147.2500 Du        
  23932 ****       130.5000 145.0000 146.5000 Du        
  23933 ****       130.5000 145.0000 146.7500 Du        
  23934 ****       130.5000 145.0000 147.0000 Du        
  23935 ****       130.5000 158.7500 160.5000 Du        
  23936 ****       130.5000 158.7500 160.7500 Du        
  23937 ****       130.5000 158.7500 161.0000 Du        
  23938 ****       130.5000 158.7500 161.2500 Du        
  23939 ****       130.5000 159.0000 160.5000 Du        
  23940 ****       130.5000 159.0000 160.7500 Du        
  23941 ****       130.5000 159.0000 161.0000 Du        
  23942 ****       130.5000 159.0000 161.2500 Du        
  23943 ****       130.5000 159.2500 161.0000 Du        
  23944 ****       130.5000 159.2500 161.2500 Du        
  23945 ****       130.7500 121.0000 140.7500 Du        
  23946 ****       130.7500 121.0000 141.0000 Du        
  23947 ****       130.7500 121.0000 141.2500 Du        
  23948 ****       130.7500 121.0000 141.5000 Du        
  23949 ****       130.7500 121.0000 141.7500 Du        
  23950 ****       130.7500 121.0000 142.0000 Du        
  23951 ****       130.7500 121.0000 142.2500 Du        
  23952 ****       130.7500 121.0000 142.5000 Du        
  23953 ****       130.7500 121.0000 142.7500 Du        
  23954 ****       130.7500 121.0000 143.0000 Du        
  23955 ****       130.7500 121.0000 143.2500 Du        
  23956 ****       130.7500 121.0000 143.5000 Du        
  23957 ****       130.7500 121.0000 143.7500 Du        
  23958 ****       130.7500 121.0000 144.0000 Du        
  23959 ****       130.7500 121.0000 144.2500 Du        
  23960 ****       130.7500 121.2500 141.0000 Du        
  23961 ****       130.7500 121.2500 141.2500 Du        
  23962 ****       130.7500 121.2500 141.5000 Du        
  23963 ****       130.7500 121.2500 141.7500 Du        
  23964 ****       130.7500 121.2500 142.0000 Du        
  23965 ****       130.7500 121.2500 142.2500 Du        
  23966 ****       130.7500 121.2500 142.5000 Du        
  23967 ****       130.7500 121.2500 142.7500 Du        
  23968 ****       130.7500 121.2500 143.0000 Du        
  23969 ****       130.7500 121.2500 143.2500 Du        
  23970 ****       130.7500 121.2500 143.5000 Du        
  23971 ****       130.7500 121.2500 143.7500 Du        
  23972 ****       130.7500 121.2500 144.0000 Du        
  23973 ****       130.7500 121.2500 144.2500 Du        
  23974 ****       130.7500 121.5000 141.2500 Du        
  23975 ****       130.7500 121.5000 141.5000 Du        
  23976 ****       130.7500 121.5000 141.7500 Du        
  23977 ****       130.7500 121.5000 142.0000 Du        
  23978 ****       130.7500 121.5000 142.2500 Du        
  23979 ****       130.7500 121.5000 142.5000 Du        
  23980 ****       130.7500 121.5000 142.7500 Du        
  23981 ****       130.7500 121.5000 143.0000 Du        
  23982 ****       130.7500 121.5000 143.2500 Du        
  23983 ****       130.7500 121.5000 143.5000 Du        
  23984 ****       130.7500 121.5000 143.7500 Du        
  23985 ****       130.7500 121.5000 144.0000 Du        
  23986 ****       130.7500 121.5000 144.2500 Du        
  23987 ****       130.7500 121.7500 142.0000 Du        
  23988 ****       130.7500 121.7500 142.2500 Du        
  23989 ****       130.7500 121.7500 142.5000 Du        
  23990 ****       130.7500 121.7500 142.7500 Du        
  23991 ****       130.7500 121.7500 143.0000 Du        
  23992 ****       130.7500 121.7500 143.2500 Du        
  23993 ****       130.7500 121.7500 143.5000 Du        
  23994 ****       130.7500 121.7500 143.7500 Du        
  23995 ****       130.7500 121.7500 144.0000 Du        
  23996 ****       130.7500 121.7500 144.2500 Du        
  23997 ****       130.7500 121.7500 144.5000 Du        
  23998 ****       130.7500 122.0000 142.7500 Du        
  23999 ****       130.7500 122.0000 143.0000 Du        
  24000 ****       130.7500 122.0000 143.2500 Du        
  24001 ****       130.7500 122.0000 143.5000 Du        
  24002 ****       130.7500 122.0000 143.7500 Du        
  24003 ****       130.7500 122.0000 144.0000 Du        
  24004 ****       130.7500 122.0000 144.2500 Du        
  24005 ****       130.7500 122.0000 144.5000 Du        
  24006 ****       130.7500 122.2500 143.0000 Du        
  24007 ****       130.7500 122.2500 143.2500 Du        
  24008 ****       130.7500 122.2500 143.5000 Du        
  24009 ****       130.7500 122.2500 143.7500 Du        
  24010 ****       130.7500 122.2500 144.0000 Du        
  24011 ****       130.7500 122.2500 144.2500 Du        
  24012 ****       130.7500 122.2500 144.5000 Du        
  24013 ****       130.7500 122.2500 144.7500 Du        
  24014 ****       130.7500 122.5000 143.5000 Du        
  24015 ****       130.7500 122.5000 143.7500 Du        
  24016 ****       130.7500 122.5000 144.0000 Du        
  24017 ****       130.7500 122.7500 143.7500 Du        
  24018 ****       130.7500 122.7500 144.0000 Du        
  24019 ****       130.7500 122.7500 144.5000 Du        
  24020 ****       130.7500 123.0000 144.2500 Du        
  24021 ****       130.7500 123.0000 144.5000 Du        
  24022 ****       130.7500 123.0000 144.7500 Du        
  24023 ****       130.7500 123.2500 144.7500 Du        
  24024 ****       130.7500 126.5000 168.0000 Du        
  24025 ****       130.7500 126.7500  97.5000 Du        
  24026 ****       130.7500 126.7500 165.5000 Du        
  24027 ****       130.7500 126.7500 165.7500 Du        
  24028 ****       130.7500 126.7500 166.0000 Du        
  24029 ****       130.7500 126.7500 166.2500 Du        
  24030 ****       130.7500 126.7500 166.5000 Du        
  24031 ****       130.7500 126.7500 166.7500 Du        
  24032 ****       130.7500 126.7500 167.0000 Du        
  24033 ****       130.7500 126.7500 167.2500 Du        
  24034 ****       130.7500 126.7500 167.5000 Du        
  24035 ****       130.7500 126.7500 167.7500 Du        
  24036 ****       130.7500 126.7500 168.0000 Du        
  24037 ****       130.7500 126.7500 168.2500 Du        
  24038 ****       130.7500 126.7500 168.5000 Du        
  24039 ****       130.7500 127.0000  97.5000 Du        
  24040 ****       130.7500 127.0000  97.7500 Du        
  24041 ****       130.7500 127.0000 165.2500 Du        
  24042 ****       130.7500 127.0000 165.5000 Du        
  24043 ****       130.7500 127.0000 165.7500 Du        
  24044 ****       130.7500 127.0000 166.0000 Du        
  24045 ****       130.7500 127.0000 166.2500 Du        
  24046 ****       130.7500 127.0000 166.5000 Du        
  24047 ****       130.7500 127.0000 166.7500 Du        
  24048 ****       130.7500 127.0000 167.0000 Du        
  24049 ****       130.7500 127.0000 167.2500 Du        
  24050 ****       130.7500 127.0000 167.5000 Du        
  24051 ****       130.7500 127.0000 167.7500 Du        
  24052 ****       130.7500 127.0000 168.0000 Du        
  24053 ****       130.7500 127.0000 168.2500 Du        
  24054 ****       130.7500 127.0000 168.5000 Du        
  24055 ****       130.7500 127.2500 165.2500 Du        
  24056 ****       130.7500 127.2500 165.5000 Du        
  24057 ****       130.7500 127.2500 165.7500 Du        
  24058 ****       130.7500 127.2500 166.0000 Du        
  24059 ****       130.7500 127.2500 166.2500 Du        
  24060 ****       130.7500 127.2500 166.5000 Du        
  24061 ****       130.7500 127.2500 166.7500 Du        
  24062 ****       130.7500 127.2500 167.0000 Du        
  24063 ****       130.7500 127.2500 167.2500 Du        
  24064 ****       130.7500 127.2500 167.5000 Du        
  24065 ****       130.7500 127.2500 167.7500 Du        
  24066 ****       130.7500 127.2500 168.0000 Du        
  24067 ****       130.7500 127.2500 168.2500 Du        
  24068 ****       130.7500 127.2500 168.5000 Du        
  24069 ****       130.7500 127.5000 165.2500 Du        
  24070 ****       130.7500 127.5000 165.5000 Du        
  24071 ****       130.7500 127.5000 165.7500 Du        
  24072 ****       130.7500 127.5000 166.0000 Du        
  24073 ****       130.7500 127.5000 166.2500 Du        
  24074 ****       130.7500 127.5000 166.5000 Du        
  24075 ****       130.7500 127.5000 166.7500 Du        
  24076 ****       130.7500 127.5000 167.0000 Du        
  24077 ****       130.7500 127.5000 167.2500 Du        
  24078 ****       130.7500 127.5000 167.5000 Du        
  24079 ****       130.7500 127.5000 167.7500 Du        
  24080 ****       130.7500 127.5000 168.0000 Du        
  24081 ****       130.7500 127.5000 168.2500 Du        
  24082 ****       130.7500 127.5000 168.5000 Du        
  24083 ****       130.7500 127.7500 165.2500 Du        
  24084 ****       130.7500 127.7500 165.5000 Du        
  24085 ****       130.7500 127.7500 165.7500 Du        
  24086 ****       130.7500 127.7500 166.0000 Du        
  24087 ****       130.7500 127.7500 166.2500 Du        
  24088 ****       130.7500 127.7500 166.5000 Du        
  24089 ****       130.7500 127.7500 166.7500 Du        
  24090 ****       130.7500 127.7500 167.0000 Du        
  24091 ****       130.7500 127.7500 167.2500 Du        
  24092 ****       130.7500 127.7500 167.5000 Du        
  24093 ****       130.7500 127.7500 167.7500 Du        
  24094 ****       130.7500 127.7500 168.0000 Du        
  24095 ****       130.7500 127.7500 168.2500 Du        
  24096 ****       130.7500 127.7500 168.5000 Du        
  24097 ****       130.7500 128.0000 165.7500 Du        
  24098 ****       130.7500 128.0000 166.0000 Du        
  24099 ****       130.7500 128.0000 166.2500 Du        
  24100 ****       130.7500 128.0000 166.5000 Du        
  24101 ****       130.7500 128.0000 166.7500 Du        
  24102 ****       130.7500 128.0000 167.0000 Du        
  24103 ****       130.7500 128.0000 167.2500 Du        
  24104 ****       130.7500 128.0000 167.5000 Du        
  24105 ****       130.7500 128.0000 167.7500 Du        
  24106 ****       130.7500 128.0000 168.0000 Du        
  24107 ****       130.7500 128.0000 168.2500 Du        
  24108 ****       130.7500 128.0000 168.5000 Du        
  24109 ****       130.7500 128.2500 166.0000 Du        
  24110 ****       130.7500 128.2500 166.2500 Du        
  24111 ****       130.7500 128.2500 166.5000 Du        
  24112 ****       130.7500 128.2500 166.7500 Du        
  24113 ****       130.7500 128.2500 167.0000 Du        
  24114 ****       130.7500 128.2500 167.2500 Du        
  24115 ****       130.7500 128.2500 167.5000 Du        
  24116 ****       130.7500 128.2500 167.7500 Du        
  24117 ****       130.7500 128.2500 168.0000 Du        
  24118 ****       130.7500 128.2500 168.2500 Du        
  24119 ****       130.7500 128.5000 166.5000 Du        
  24120 ****       130.7500 128.5000 166.7500 Du        
  24121 ****       130.7500 128.5000 167.0000 Du        
  24122 ****       130.7500 128.5000 167.2500 Du        
  24123 ****       130.7500 128.5000 167.5000 Du        
  24124 ****       130.7500 128.5000 167.7500 Du        
  24125 ****       130.7500 128.5000 168.0000 Du        
  24126 ****       130.7500 128.5000 168.2500 Du        
  24127 ****       130.7500 128.7500 166.7500 Du        
  24128 ****       130.7500 128.7500 167.0000 Du        
  24129 ****       130.7500 128.7500 167.2500 Du        
  24130 ****       130.7500 128.7500 167.5000 Du        
  24131 ****       130.7500 128.7500 167.7500 Du        
  24132 ****       130.7500 128.7500 168.0000 Du        
  24133 ****       130.7500 129.0000 167.0000 Du        
  24134 ****       130.7500 129.0000 167.2500 Du        
  24135 ****       130.7500 129.0000 167.5000 Du        
  24136 ****       130.7500 129.7500 154.7500 Du        
  24137 ****       130.7500 130.0000 154.7500 Du        
  24138 ****       130.7500 130.0000 155.0000 Du        
  24139 ****       130.7500 130.2500 154.5000 Du        
  24140 ****       130.7500 130.2500 154.7500 Du        
  24141 ****       130.7500 130.2500 155.0000 Du        
  24142 ****       130.7500 130.2500 155.2500 Du        
  24143 ****       130.7500 130.2500 167.5000 Du        
  24144 ****       130.7500 130.2500 167.7500 Du        
  24145 ****       130.7500 130.2500 168.0000 Du        
  24146 ****       130.7500 130.2500 168.2500 Du        
  24147 ****       130.7500 130.2500 168.5000 Du        
  24148 ****       130.7500 130.5000 167.2500 Du        
  24149 ****       130.7500 130.5000 167.5000 Du        
  24150 ****       130.7500 130.5000 167.7500 Du        
  24151 ****       130.7500 130.5000 168.0000 Du        
  24152 ****       130.7500 130.5000 168.2500 Du        
  24153 ****       130.7500 130.5000 168.5000 Du        
  24154 ****       130.7500 130.5000 168.7500 Du        
  24155 ****       130.7500 130.7500 167.2500 Du        
  24156 ****       130.7500 130.7500 167.5000 Du        
  24157 ****       130.7500 130.7500 167.7500 Du        
  24158 ****       130.7500 130.7500 168.0000 Du        
  24159 ****       130.7500 130.7500 168.2500 Du        
  24160 ****       130.7500 130.7500 168.5000 Du        
  24161 ****       130.7500 130.7500 168.7500 Du        
  24162 ****       130.7500 130.7500 169.0000 Du        
  24163 ****       130.7500 130.7500 169.2500 Du        
  24164 ****       130.7500 131.0000 167.0000 Du        
  24165 ****       130.7500 131.0000 167.2500 Du        
  24166 ****       130.7500 131.0000 167.5000 Du        
  24167 ****       130.7500 131.0000 167.7500 Du        
  24168 ****       130.7500 131.0000 168.0000 Du        
  24169 ****       130.7500 131.0000 168.2500 Du        
  24170 ****       130.7500 131.0000 168.5000 Du        
  24171 ****       130.7500 131.0000 168.7500 Du        
  24172 ****       130.7500 131.0000 169.0000 Du        
  24173 ****       130.7500 131.0000 169.2500 Du        
  24174 ****       130.7500 131.0000 169.5000 Du        
  24175 ****       130.7500 131.2500 167.0000 Du        
  24176 ****       130.7500 131.2500 167.2500 Du        
  24177 ****       130.7500 131.2500 167.5000 Du        
  24178 ****       130.7500 131.2500 167.7500 Du        
  24179 ****       130.7500 131.2500 168.0000 Du        
  24180 ****       130.7500 131.2500 168.2500 Du        
  24181 ****       130.7500 131.2500 168.5000 Du        
  24182 ****       130.7500 131.2500 168.7500 Du        
  24183 ****       130.7500 131.2500 169.0000 Du        
  24184 ****       130.7500 131.2500 169.2500 Du        
  24185 ****       130.7500 131.2500 169.5000 Du        
  24186 ****       130.7500 131.5000 155.5000 Du        
  24187 ****       130.7500 131.5000 167.0000 Du        
  24188 ****       130.7500 131.5000 167.2500 Du        
  24189 ****       130.7500 131.5000 167.5000 Du        
  24190 ****       130.7500 131.5000 167.7500 Du        
  24191 ****       130.7500 131.5000 168.0000 Du        
  24192 ****       130.7500 131.5000 168.2500 Du        
  24193 ****       130.7500 131.5000 168.5000 Du        
  24194 ****       130.7500 131.5000 168.7500 Du        
  24195 ****       130.7500 131.5000 169.0000 Du        
  24196 ****       130.7500 131.5000 169.2500 Du        
  24197 ****       130.7500 131.5000 169.5000 Du        
  24198 ****       130.7500 131.7500 137.2500 Du        
  24199 ****       130.7500 131.7500 137.5000 Du        
  24200 ****       130.7500 131.7500 137.7500 Du        
  24201 ****       130.7500 131.7500 138.0000 Du        
  24202 ****       130.7500 131.7500 138.2500 Du        
  24203 ****       130.7500 131.7500 167.0000 Du        
  24204 ****       130.7500 131.7500 167.2500 Du        
  24205 ****       130.7500 131.7500 167.5000 Du        
  24206 ****       130.7500 131.7500 167.7500 Du        
  24207 ****       130.7500 131.7500 168.0000 Du        
  24208 ****       130.7500 131.7500 168.2500 Du        
  24209 ****       130.7500 131.7500 168.5000 Du        
  24210 ****       130.7500 131.7500 168.7500 Du        
  24211 ****       130.7500 131.7500 169.0000 Du        
  24212 ****       130.7500 131.7500 169.2500 Du        
  24213 ****       130.7500 131.7500 169.5000 Du        
  24214 ****       130.7500 132.0000 137.2500 Du        
  24215 ****       130.7500 132.0000 137.5000 Du        
  24216 ****       130.7500 132.0000 137.7500 Du        
  24217 ****       130.7500 132.0000 138.0000 Du        
  24218 ****       130.7500 132.0000 138.2500 Du        
  24219 ****       130.7500 132.0000 138.5000 Du        
  24220 ****       130.7500 132.0000 138.7500 Du        
  24221 ****       130.7500 132.0000 139.0000 Du        
  24222 ****       130.7500 132.0000 167.0000 Du        
  24223 ****       130.7500 132.0000 167.2500 Du        
  24224 ****       130.7500 132.0000 167.5000 Du        
  24225 ****       130.7500 132.0000 167.7500 Du        
  24226 ****       130.7500 132.2500 137.2500 Du        
  24227 ****       130.7500 132.2500 137.5000 Du        
  24228 ****       130.7500 132.2500 137.7500 Du        
  24229 ****       130.7500 132.2500 138.0000 Du        
  24230 ****       130.7500 132.2500 138.2500 Du        
  24231 ****       130.7500 132.2500 138.5000 Du        
  24232 ****       130.7500 132.2500 138.7500 Du        
  24233 ****       130.7500 132.2500 139.0000 Du        
  24234 ****       130.7500 132.2500 139.2500 Du        
  24235 ****       130.7500 132.2500 139.5000 Du        
  24236 ****       130.7500 132.5000 137.7500 Du        
  24237 ****       130.7500 132.5000 138.0000 Du        
  24238 ****       130.7500 132.5000 138.2500 Du        
  24239 ****       130.7500 132.5000 138.5000 Du        
  24240 ****       130.7500 132.5000 138.7500 Du        
  24241 ****       130.7500 132.5000 139.0000 Du        
  24242 ****       130.7500 132.5000 139.2500 Du        
  24243 ****       130.7500 132.5000 139.5000 Du        
  24244 ****       130.7500 132.5000 139.7500 Du        
  24245 ****       130.7500 132.5000 140.0000 Du        
  24246 ****       130.7500 132.7500 138.0000 Du        
  24247 ****       130.7500 132.7500 138.2500 Du        
  24248 ****       130.7500 132.7500 138.5000 Du        
  24249 ****       130.7500 132.7500 138.7500 Du        
  24250 ****       130.7500 132.7500 139.0000 Du        
  24251 ****       130.7500 132.7500 139.2500 Du        
  24252 ****       130.7500 132.7500 139.5000 Du        
  24253 ****       130.7500 132.7500 139.7500 Du        
  24254 ****       130.7500 132.7500 140.0000 Du        
  24255 ****       130.7500 132.7500 140.2500 Du        
  24256 ****       130.7500 132.7500 140.5000 Du        
  24257 ****       130.7500 132.7500 140.7500 Du        
  24258 ****       130.7500 132.7500 155.0000 Du        
  24259 ****       130.7500 132.7500 155.2500 Du        
  24260 ****       130.7500 132.7500 155.5000 Du        
  24261 ****       130.7500 133.0000 138.0000 Du        
  24262 ****       130.7500 133.0000 138.2500 Du        
  24263 ****       130.7500 133.0000 138.5000 Du        
  24264 ****       130.7500 133.0000 138.7500 Du        
  24265 ****       130.7500 133.0000 139.0000 Du        
  24266 ****       130.7500 133.0000 139.2500 Du        
  24267 ****       130.7500 133.0000 139.5000 Du        
  24268 ****       130.7500 133.0000 139.7500 Du        
  24269 ****       130.7500 133.0000 140.0000 Du        
  24270 ****       130.7500 133.0000 140.2500 Du        
  24271 ****       130.7500 133.0000 140.5000 Du        
  24272 ****       130.7500 133.0000 140.7500 Du        
  24273 ****       130.7500 133.0000 141.0000 Du        
  24274 ****       130.7500 133.0000 141.2500 Du        
  24275 ****       130.7500 133.0000 155.0000 Du        
  24276 ****       130.7500 133.0000 155.2500 Du        
  24277 ****       130.7500 133.0000 155.5000 Du        
  24278 ****       130.7500 133.0000 155.7500 Du        
  24279 ****       130.7500 133.2500 138.2500 Du        
  24280 ****       130.7500 133.2500 138.5000 Du        
  24281 ****       130.7500 133.2500 138.7500 Du        
  24282 ****       130.7500 133.2500 139.0000 Du        
  24283 ****       130.7500 133.2500 139.2500 Du        
  24284 ****       130.7500 133.2500 139.5000 Du        
  24285 ****       130.7500 133.2500 139.7500 Du        
  24286 ****       130.7500 133.2500 140.0000 Du        
  24287 ****       130.7500 133.2500 140.2500 Du        
  24288 ****       130.7500 133.2500 140.5000 Du        
  24289 ****       130.7500 133.2500 140.7500 Du        
  24290 ****       130.7500 133.2500 141.0000 Du        
  24291 ****       130.7500 133.2500 141.2500 Du        
  24292 ****       130.7500 133.2500 154.7500 Du        
  24293 ****       130.7500 133.2500 155.0000 Du        
  24294 ****       130.7500 133.2500 155.2500 Du        
  24295 ****       130.7500 133.2500 155.5000 Du        
  24296 ****       130.7500 133.2500 155.7500 Du        
  24297 ****       130.7500 133.2500 156.0000 Du        
  24298 ****       130.7500 133.5000 138.5000 Du        
  24299 ****       130.7500 133.5000 138.7500 Du        
  24300 ****       130.7500 133.5000 139.0000 Du        
  24301 ****       130.7500 133.5000 139.2500 Du        
  24302 ****       130.7500 133.5000 139.5000 Du        
  24303 ****       130.7500 133.5000 139.7500 Du        
  24304 ****       130.7500 133.5000 140.0000 Du        
  24305 ****       130.7500 133.5000 140.2500 Du        
  24306 ****       130.7500 133.5000 140.5000 Du        
  24307 ****       130.7500 133.5000 140.7500 Du        
  24308 ****       130.7500 133.5000 141.0000 Du        
  24309 ****       130.7500 133.5000 141.2500 Du        
  24310 ****       130.7500 133.5000 154.5000 Du        
  24311 ****       130.7500 133.5000 154.7500 Du        
  24312 ****       130.7500 133.5000 155.0000 Du        
  24313 ****       130.7500 133.5000 155.2500 Du        
  24314 ****       130.7500 133.5000 155.5000 Du        
  24315 ****       130.7500 133.5000 155.7500 Du        
  24316 ****       130.7500 133.5000 156.0000 Du        
  24317 ****       130.7500 133.5000 156.2500 Du        
  24318 ****       130.7500 133.7500 138.5000 Du        
  24319 ****       130.7500 133.7500 138.7500 Du        
  24320 ****       130.7500 133.7500 139.0000 Du        
  24321 ****       130.7500 133.7500 139.2500 Du        
  24322 ****       130.7500 133.7500 139.5000 Du        
  24323 ****       130.7500 133.7500 139.7500 Du        
  24324 ****       130.7500 133.7500 140.0000 Du        
  24325 ****       130.7500 133.7500 140.2500 Du        
  24326 ****       130.7500 133.7500 140.5000 Du        
  24327 ****       130.7500 133.7500 140.7500 Du        
  24328 ****       130.7500 133.7500 141.0000 Du        
  24329 ****       130.7500 133.7500 141.2500 Du        
  24330 ****       130.7500 133.7500 154.7500 Du        
  24331 ****       130.7500 133.7500 155.0000 Du        
  24332 ****       130.7500 133.7500 155.2500 Du        
  24333 ****       130.7500 133.7500 155.5000 Du        
  24334 ****       130.7500 133.7500 155.7500 Du        
  24335 ****       130.7500 133.7500 156.0000 Du        
  24336 ****       130.7500 133.7500 156.2500 Du        
  24337 ****       130.7500 133.7500 156.5000 Du        
  24338 ****       130.7500 134.0000 139.0000 Du        
  24339 ****       130.7500 134.0000 139.2500 Du        
  24340 ****       130.7500 134.0000 139.5000 Du        
  24341 ****       130.7500 134.0000 139.7500 Du        
  24342 ****       130.7500 134.0000 140.0000 Du        
  24343 ****       130.7500 134.0000 140.2500 Du        
  24344 ****       130.7500 134.0000 140.5000 Du        
  24345 ****       130.7500 134.0000 140.7500 Du        
  24346 ****       130.7500 134.0000 141.0000 Du        
  24347 ****       130.7500 134.0000 155.0000 Du        
  24348 ****       130.7500 134.0000 155.2500 Du        
  24349 ****       130.7500 134.0000 155.5000 Du        
  24350 ****       130.7500 134.0000 155.7500 Du        
  24351 ****       130.7500 134.0000 156.0000 Du        
  24352 ****       130.7500 134.0000 156.2500 Du        
  24353 ****       130.7500 134.0000 156.5000 Du        
  24354 ****       130.7500 134.0000 156.7500 Du        
  24355 ****       130.7500 134.2500 155.2500 Du        
  24356 ****       130.7500 134.2500 155.5000 Du        
  24357 ****       130.7500 134.2500 155.7500 Du        
  24358 ****       130.7500 134.2500 156.0000 Du        
  24359 ****       130.7500 134.2500 156.2500 Du        
  24360 ****       130.7500 134.2500 156.5000 Du        
  24361 ****       130.7500 134.2500 156.7500 Du        
  24362 ****       130.7500 134.5000 155.7500 Du        
  24363 ****       130.7500 134.5000 156.0000 Du        
  24364 ****       130.7500 134.5000 156.2500 Du        
  24365 ****       130.7500 134.5000 156.5000 Du        
  24366 ****       130.7500 134.5000 156.7500 Du        
  24367 ****       130.7500 135.0000 165.2500 Du        
  24368 ****       130.7500 135.2500 165.0000 Du        
  24369 ****       130.7500 135.2500 165.2500 Du        
  24370 ****       130.7500 135.5000 165.0000 Du        
  24371 ****       130.7500 135.5000 165.2500 Du        
  24372 ****       130.7500 135.5000 165.5000 Du        
  24373 ****       130.7500 135.7500 164.7500 Du        
  24374 ****       130.7500 135.7500 165.0000 Du        
  24375 ****       130.7500 135.7500 165.2500 Du        
  24376 ****       130.7500 135.7500 165.5000 Du        
  24377 ****       130.7500 136.0000 164.7500 Du        
  24378 ****       130.7500 136.0000 165.0000 Du        
  24379 ****       130.7500 136.0000 165.2500 Du        
  24380 ****       130.7500 136.0000 165.5000 Du        
  24381 ****       130.7500 136.2500  85.7500 Du        
  24382 ****       130.7500 136.2500 164.7500 Du        
  24383 ****       130.7500 136.2500 165.0000 Du        
  24384 ****       130.7500 136.2500 165.2500 Du        
  24385 ****       130.7500 136.2500 165.5000 Du        
  24386 ****       130.7500 136.5000 165.0000 Du        
  24387 ****       130.7500 136.5000 165.2500 Du        
  24388 ****       130.7500 136.5000 165.5000 Du        
  24389 ****       130.7500 136.7500 165.2500 Du        
  24390 ****       130.7500 136.7500 165.5000 Du        
  24391 ****       130.7500 138.2500  96.5000 Du        
  24392 ****       130.7500 138.2500  96.7500 Du        
  24393 ****       130.7500 139.2500 104.2500 Du        
  24394 ****       130.7500 139.2500 104.5000 Du        
  24395 ****       130.7500 139.2500 104.7500 Du        
  24396 ****       130.7500 139.2500 105.0000 Du        
  24397 ****       130.7500 139.2500 105.2500 Du        
  24398 ****       130.7500 139.5000 104.0000 Du        
  24399 ****       130.7500 139.5000 104.2500 Du        
  24400 ****       130.7500 139.5000 104.5000 Du        
  24401 ****       130.7500 139.5000 104.7500 Du        
  24402 ****       130.7500 139.5000 105.0000 Du        
  24403 ****       130.7500 139.5000 105.2500 Du        
  24404 ****       130.7500 139.5000 105.5000 Du        
  24405 ****       130.7500 139.5000 105.7500 Du        
  24406 ****       130.7500 139.5000 106.0000 Du        
  24407 ****       130.7500 139.7500 103.7500 Du        
  24408 ****       130.7500 139.7500 104.0000 Du        
  24409 ****       130.7500 139.7500 104.2500 Du        
  24410 ****       130.7500 139.7500 104.5000 Du        
  24411 ****       130.7500 139.7500 104.7500 Du        
  24412 ****       130.7500 139.7500 105.0000 Du        
  24413 ****       130.7500 139.7500 105.2500 Du        
  24414 ****       130.7500 139.7500 105.5000 Du        
  24415 ****       130.7500 139.7500 105.7500 Du        
  24416 ****       130.7500 139.7500 106.0000 Du        
  24417 ****       130.7500 140.0000 103.5000 Du        
  24418 ****       130.7500 140.0000 103.7500 Du        
  24419 ****       130.7500 140.0000 104.0000 Du        
  24420 ****       130.7500 140.0000 104.2500 Du        
  24421 ****       130.7500 140.0000 104.5000 Du        
  24422 ****       130.7500 140.0000 104.7500 Du        
  24423 ****       130.7500 140.0000 105.0000 Du        
  24424 ****       130.7500 140.0000 105.2500 Du        
  24425 ****       130.7500 140.0000 105.5000 Du        
  24426 ****       130.7500 140.0000 105.7500 Du        
  24427 ****       130.7500 140.0000 106.0000 Du        
  24428 ****       130.7500 140.2500 103.2500 Du        
  24429 ****       130.7500 140.2500 103.5000 Du        
  24430 ****       130.7500 140.2500 103.7500 Du        
  24431 ****       130.7500 140.2500 104.0000 Du        
  24432 ****       130.7500 140.2500 104.2500 Du        
  24433 ****       130.7500 140.2500 104.5000 Du        
  24434 ****       130.7500 140.2500 104.7500 Du        
  24435 ****       130.7500 140.2500 105.0000 Du        
  24436 ****       130.7500 140.2500 105.2500 Du        
  24437 ****       130.7500 140.2500 105.5000 Du        
  24438 ****       130.7500 140.2500 105.7500 Du        
  24439 ****       130.7500 140.2500 106.0000 Du        
  24440 ****       130.7500 140.5000 103.0000 Du        
  24441 ****       130.7500 140.5000 103.2500 Du        
  24442 ****       130.7500 140.5000 103.5000 Du        
  24443 ****       130.7500 140.5000 103.7500 Du        
  24444 ****       130.7500 140.5000 104.0000 Du        
  24445 ****       130.7500 140.5000 104.2500 Du        
  24446 ****       130.7500 140.5000 104.5000 Du        
  24447 ****       130.7500 140.5000 104.7500 Du        
  24448 ****       130.7500 140.5000 105.0000 Du        
  24449 ****       130.7500 140.5000 105.2500 Du        
  24450 ****       130.7500 140.5000 105.5000 Du        
  24451 ****       130.7500 140.5000 105.7500 Du        
  24452 ****       130.7500 140.5000 106.0000 Du        
  24453 ****       130.7500 140.7500 102.7500 Du        
  24454 ****       130.7500 140.7500 103.0000 Du        
  24455 ****       130.7500 140.7500 103.2500 Du        
  24456 ****       130.7500 140.7500 103.5000 Du        
  24457 ****       130.7500 140.7500 103.7500 Du        
  24458 ****       130.7500 140.7500 104.0000 Du        
  24459 ****       130.7500 140.7500 104.2500 Du        
  24460 ****       130.7500 140.7500 104.5000 Du        
  24461 ****       130.7500 140.7500 104.7500 Du        
  24462 ****       130.7500 140.7500 105.0000 Du        
  24463 ****       130.7500 140.7500 105.2500 Du        
  24464 ****       130.7500 140.7500 105.5000 Du        
  24465 ****       130.7500 140.7500 105.7500 Du        
  24466 ****       130.7500 141.0000 102.5000 Du        
  24467 ****       130.7500 141.0000 102.7500 Du        
  24468 ****       130.7500 141.0000 103.0000 Du        
  24469 ****       130.7500 141.0000 103.2500 Du        
  24470 ****       130.7500 141.0000 103.5000 Du        
  24471 ****       130.7500 141.0000 103.7500 Du        
  24472 ****       130.7500 141.0000 104.0000 Du        
  24473 ****       130.7500 141.0000 104.2500 Du        
  24474 ****       130.7500 141.0000 104.5000 Du        
  24475 ****       130.7500 141.0000 104.7500 Du        
  24476 ****       130.7500 141.0000 105.0000 Du        
  24477 ****       130.7500 141.0000 105.2500 Du        
  24478 ****       130.7500 141.0000 105.5000 Du        
  24479 ****       130.7500 141.2500 102.2500 Du        
  24480 ****       130.7500 141.2500 102.5000 Du        
  24481 ****       130.7500 141.2500 102.7500 Du        
  24482 ****       130.7500 141.2500 103.0000 Du        
  24483 ****       130.7500 141.2500 103.2500 Du        
  24484 ****       130.7500 141.2500 103.5000 Du        
  24485 ****       130.7500 141.2500 103.7500 Du        
  24486 ****       130.7500 141.2500 104.0000 Du        
  24487 ****       130.7500 141.2500 104.2500 Du        
  24488 ****       130.7500 141.2500 104.5000 Du        
  24489 ****       130.7500 141.2500 104.7500 Du        
  24490 ****       130.7500 141.2500 105.0000 Du        
  24491 ****       130.7500 141.2500 105.2500 Du        
  24492 ****       130.7500 141.5000 102.7500 Du        
  24493 ****       130.7500 141.5000 103.0000 Du        
  24494 ****       130.7500 141.5000 103.2500 Du        
  24495 ****       130.7500 141.5000 103.5000 Du        
  24496 ****       130.7500 141.5000 103.7500 Du        
  24497 ****       130.7500 141.5000 104.0000 Du        
  24498 ****       130.7500 141.5000 104.2500 Du        
  24499 ****       130.7500 141.5000 104.5000 Du        
  24500 ****       130.7500 141.5000 104.7500 Du        
  24501 ****       130.7500 141.5000 105.0000 Du        
  24502 ****       130.7500 141.5000 105.2500 Du        
  24503 ****       130.7500 141.7500 102.2500 Du        
  24504 ****       130.7500 141.7500 102.7500 Du        
  24505 ****       130.7500 141.7500 103.0000 Du        
  24506 ****       130.7500 141.7500 103.2500 Du        
  24507 ****       130.7500 141.7500 103.5000 Du        
  24508 ****       130.7500 141.7500 103.7500 Du        
  24509 ****       130.7500 141.7500 104.0000 Du        
  24510 ****       130.7500 141.7500 104.2500 Du        
  24511 ****       130.7500 141.7500 104.5000 Du        
  24512 ****       130.7500 141.7500 104.7500 Du        
  24513 ****       130.7500 141.7500 105.0000 Du        
  24514 ****       130.7500 142.0000 102.2500 Du        
  24515 ****       130.7500 142.0000 102.5000 Du        
  24516 ****       130.7500 142.0000 102.7500 Du        
  24517 ****       130.7500 142.0000 103.0000 Du        
  24518 ****       130.7500 142.0000 103.2500 Du        
  24519 ****       130.7500 142.0000 103.5000 Du        
  24520 ****       130.7500 142.0000 103.7500 Du        
  24521 ****       130.7500 142.0000 104.0000 Du        
  24522 ****       130.7500 142.0000 104.2500 Du        
  24523 ****       130.7500 142.0000 104.5000 Du        
  24524 ****       130.7500 142.0000 104.7500 Du        
  24525 ****       130.7500 142.2500 102.5000 Du        
  24526 ****       130.7500 142.2500 102.7500 Du        
  24527 ****       130.7500 142.2500 103.0000 Du        
  24528 ****       130.7500 142.2500 103.2500 Du        
  24529 ****       130.7500 142.2500 103.5000 Du        
  24530 ****       130.7500 142.2500 103.7500 Du        
  24531 ****       130.7500 142.2500 104.0000 Du        
  24532 ****       130.7500 142.2500 104.2500 Du        
  24533 ****       130.7500 142.2500 104.5000 Du        
  24534 ****       130.7500 142.5000 102.2500 Du        
  24535 ****       130.7500 142.5000 102.5000 Du        
  24536 ****       130.7500 142.5000 102.7500 Du        
  24537 ****       130.7500 142.5000 103.0000 Du        
  24538 ****       130.7500 142.5000 103.2500 Du        
  24539 ****       130.7500 142.5000 103.5000 Du        
  24540 ****       130.7500 142.5000 103.7500 Du        
  24541 ****       130.7500 142.5000 104.0000 Du        
  24542 ****       130.7500 142.7500  99.2500 Du        
  24543 ****       130.7500 142.7500 102.2500 Du        
  24544 ****       130.7500 142.7500 102.5000 Du        
  24545 ****       130.7500 142.7500 102.7500 Du        
  24546 ****       130.7500 142.7500 103.0000 Du        
  24547 ****       130.7500 142.7500 103.2500 Du        
  24548 ****       130.7500 142.7500 103.5000 Du        
  24549 ****       130.7500 142.7500 103.7500 Du        
  24550 ****       130.7500 142.7500 104.0000 Du        
  24551 ****       130.7500 143.0000  98.5000 Du        
  24552 ****       130.7500 143.0000  98.7500 Du        
  24553 ****       130.7500 143.0000  99.0000 Du        
  24554 ****       130.7500 143.0000  99.2500 Du        
  24555 ****       130.7500 143.0000  99.5000 Du        
  24556 ****       130.7500 143.0000 102.5000 Du        
  24557 ****       130.7500 143.0000 102.7500 Du        
  24558 ****       130.7500 143.0000 103.0000 Du        
  24559 ****       130.7500 143.0000 103.2500 Du        
  24560 ****       130.7500 143.0000 103.5000 Du        
  24561 ****       130.7500 143.0000 103.7500 Du        
  24562 ****       130.7500 143.2500  98.5000 Du        
  24563 ****       130.7500 143.2500  98.7500 Du        
  24564 ****       130.7500 143.2500  99.0000 Du        
  24565 ****       130.7500 143.2500  99.2500 Du        
  24566 ****       130.7500 143.2500  99.5000 Du        
  24567 ****       130.7500 143.2500  99.7500 Du        
  24568 ****       130.7500 143.5000  98.2500 Du        
  24569 ****       130.7500 143.5000  98.5000 Du        
  24570 ****       130.7500 143.5000  98.7500 Du        
  24571 ****       130.7500 143.5000  99.0000 Du        
  24572 ****       130.7500 143.5000  99.2500 Du        
  24573 ****       130.7500 143.5000  99.5000 Du        
  24574 ****       130.7500 143.5000  99.7500 Du        
  24575 ****       130.7500 143.5000 100.0000 Du        
  24576 ****       130.7500 143.7500  98.5000 Du        
  24577 ****       130.7500 143.7500  98.7500 Du        
  24578 ****       130.7500 143.7500  99.0000 Du        
  24579 ****       130.7500 143.7500  99.2500 Du        
  24580 ****       130.7500 143.7500  99.5000 Du        
  24581 ****       130.7500 143.7500  99.7500 Du        
  24582 ****       130.7500 144.0000  98.7500 Du        
  24583 ****       130.7500 144.0000  99.0000 Du        
  24584 ****       130.7500 144.0000  99.2500 Du        
  24585 ****       130.7500 144.0000  99.5000 Du        
  24586 ****       130.7500 144.0000  99.7500 Du        
  24587 ****       130.7500 144.0000 146.5000 Du        
  24588 ****       130.7500 144.0000 146.7500 Du        
  24589 ****       130.7500 144.0000 147.0000 Du        
  24590 ****       130.7500 144.0000 147.2500 Du        
  24591 ****       130.7500 144.2500  99.0000 Du        
  24592 ****       130.7500 144.2500  99.2500 Du        
  24593 ****       130.7500 144.2500  99.5000 Du        
  24594 ****       130.7500 144.2500 146.5000 Du        
  24595 ****       130.7500 144.2500 146.7500 Du        
  24596 ****       130.7500 144.2500 147.0000 Du        
  24597 ****       130.7500 144.2500 147.2500 Du        
  24598 ****       130.7500 144.2500 147.5000 Du        
  24599 ****       130.7500 144.5000  99.2500 Du        
  24600 ****       130.7500 144.5000  99.5000 Du        
  24601 ****       130.7500 144.5000 146.5000 Du        
  24602 ****       130.7500 144.5000 146.7500 Du        
  24603 ****       130.7500 144.5000 147.0000 Du        
  24604 ****       130.7500 144.5000 147.2500 Du        
  24605 ****       130.7500 144.5000 147.5000 Du        
  24606 ****       130.7500 144.7500 146.5000 Du        
  24607 ****       130.7500 144.7500 146.7500 Du        
  24608 ****       130.7500 144.7500 147.0000 Du        
  24609 ****       130.7500 144.7500 147.2500 Du        
  24610 ****       130.7500 144.7500 147.5000 Du        
  24611 ****       130.7500 145.0000 146.7500 Du        
  24612 ****       130.7500 145.0000 147.0000 Du        
  24613 ****       130.7500 158.7500 160.7500 Du        
  24614 ****       130.7500 158.7500 161.0000 Du        
  24615 ****       130.7500 159.0000 160.5000 Du        
  24616 ****       130.7500 159.0000 160.7500 Du        
  24617 ****       130.7500 159.0000 161.0000 Du        
  24618 ****       130.7500 159.0000 161.2500 Du        
  24619 ****       130.7500 159.2500 160.7500 Du        
  24620 ****       130.7500 159.2500 161.0000 Du        
  24621 ****       130.7500 159.2500 161.2500 Du        
  24622 ****       131.0000 121.0000 140.7500 Du        
  24623 ****       131.0000 121.0000 141.0000 Du        
  24624 ****       131.0000 121.0000 141.2500 Du        
  24625 ****       131.0000 121.0000 141.5000 Du        
  24626 ****       131.0000 121.0000 141.7500 Du        
  24627 ****       131.0000 121.0000 142.0000 Du        
  24628 ****       131.0000 121.0000 142.2500 Du        
  24629 ****       131.0000 121.0000 142.5000 Du        
  24630 ****       131.0000 121.0000 142.7500 Du        
  24631 ****       131.0000 121.0000 143.0000 Du        
  24632 ****       131.0000 121.0000 143.2500 Du        
  24633 ****       131.0000 121.0000 143.5000 Du        
  24634 ****       131.0000 121.0000 143.7500 Du        
  24635 ****       131.0000 121.0000 144.0000 Du        
  24636 ****       131.0000 121.0000 144.2500 Du        
  24637 ****       131.0000 121.0000 144.5000 Du        
  24638 ****       131.0000 121.2500 141.0000 Du        
  24639 ****       131.0000 121.2500 141.2500 Du        
  24640 ****       131.0000 121.2500 141.5000 Du        
  24641 ****       131.0000 121.2500 141.7500 Du        
  24642 ****       131.0000 121.2500 142.0000 Du        
  24643 ****       131.0000 121.2500 142.2500 Du        
  24644 ****       131.0000 121.2500 142.5000 Du        
  24645 ****       131.0000 121.2500 142.7500 Du        
  24646 ****       131.0000 121.2500 143.0000 Du        
  24647 ****       131.0000 121.2500 143.2500 Du        
  24648 ****       131.0000 121.2500 143.5000 Du        
  24649 ****       131.0000 121.2500 143.7500 Du        
  24650 ****       131.0000 121.2500 144.0000 Du        
  24651 ****       131.0000 121.2500 144.2500 Du        
  24652 ****       131.0000 121.2500 144.5000 Du        
  24653 ****       131.0000 121.5000 141.2500 Du        
  24654 ****       131.0000 121.5000 141.5000 Du        
  24655 ****       131.0000 121.5000 141.7500 Du        
  24656 ****       131.0000 121.5000 142.0000 Du        
  24657 ****       131.0000 121.5000 142.2500 Du        
  24658 ****       131.0000 121.5000 142.5000 Du        
  24659 ****       131.0000 121.5000 142.7500 Du        
  24660 ****       131.0000 121.5000 143.0000 Du        
  24661 ****       131.0000 121.5000 143.2500 Du        
  24662 ****       131.0000 121.5000 143.5000 Du        
  24663 ****       131.0000 121.5000 143.7500 Du        
  24664 ****       131.0000 121.5000 144.0000 Du        
  24665 ****       131.0000 121.5000 144.2500 Du        
  24666 ****       131.0000 121.5000 144.5000 Du        
  24667 ****       131.0000 121.5000 144.7500 Du        
  24668 ****       131.0000 121.7500 142.0000 Du        
  24669 ****       131.0000 121.7500 142.2500 Du        
  24670 ****       131.0000 121.7500 142.5000 Du        
  24671 ****       131.0000 121.7500 142.7500 Du        
  24672 ****       131.0000 121.7500 143.0000 Du        
  24673 ****       131.0000 121.7500 143.2500 Du        
  24674 ****       131.0000 121.7500 143.5000 Du        
  24675 ****       131.0000 121.7500 143.7500 Du        
  24676 ****       131.0000 121.7500 144.0000 Du        
  24677 ****       131.0000 121.7500 144.2500 Du        
  24678 ****       131.0000 121.7500 144.5000 Du        
  24679 ****       131.0000 121.7500 144.7500 Du        
  24680 ****       131.0000 122.0000 142.7500 Du        
  24681 ****       131.0000 122.0000 143.0000 Du        
  24682 ****       131.0000 122.0000 143.2500 Du        
  24683 ****       131.0000 122.0000 143.5000 Du        
  24684 ****       131.0000 122.0000 143.7500 Du        
  24685 ****       131.0000 122.0000 144.0000 Du        
  24686 ****       131.0000 122.0000 144.2500 Du        
  24687 ****       131.0000 122.0000 144.5000 Du        
  24688 ****       131.0000 122.0000 144.7500 Du        
  24689 ****       131.0000 122.2500 143.0000 Du        
  24690 ****       131.0000 122.2500 143.2500 Du        
  24691 ****       131.0000 122.2500 143.5000 Du        
  24692 ****       131.0000 122.2500 143.7500 Du        
  24693 ****       131.0000 122.2500 144.0000 Du        
  24694 ****       131.0000 122.2500 144.2500 Du        
  24695 ****       131.0000 122.2500 144.5000 Du        
  24696 ****       131.0000 122.2500 144.7500 Du        
  24697 ****       131.0000 122.5000 143.2500 Du        
  24698 ****       131.0000 122.5000 143.5000 Du        
  24699 ****       131.0000 122.5000 143.7500 Du        
  24700 ****       131.0000 122.5000 144.0000 Du        
  24701 ****       131.0000 122.5000 144.2500 Du        
  24702 ****       131.0000 122.5000 144.5000 Du        
  24703 ****       131.0000 122.5000 144.7500 Du        
  24704 ****       131.0000 122.7500 143.5000 Du        
  24705 ****       131.0000 122.7500 143.7500 Du        
  24706 ****       131.0000 122.7500 144.0000 Du        
  24707 ****       131.0000 122.7500 144.2500 Du        
  24708 ****       131.0000 122.7500 144.5000 Du        
  24709 ****       131.0000 122.7500 144.7500 Du        
  24710 ****       131.0000 123.0000 143.7500 Du        
  24711 ****       131.0000 123.0000 144.0000 Du        
  24712 ****       131.0000 123.0000 144.2500 Du        
  24713 ****       131.0000 123.0000 144.5000 Du        
  24714 ****       131.0000 123.0000 144.7500 Du        
  24715 ****       131.0000 123.0000 145.0000 Du        
  24716 ****       131.0000 123.2500 144.0000 Du        
  24717 ****       131.0000 123.2500 144.2500 Du        
  24718 ****       131.0000 123.2500 144.7500 Du        
  24719 ****       131.0000 123.2500 145.0000 Du        
  24720 ****       131.0000 123.5000 144.5000 Du        
  24721 ****       131.0000 123.5000 144.7500 Du        
  24722 ****       131.0000 123.5000 145.0000 Du        
  24723 ****       131.0000 123.7500 144.7500 Du        
  24724 ****       131.0000 123.7500 145.0000 Du        
  24725 ****       131.0000 124.0000 144.7500 Du        
  24726 ****       131.0000 124.0000 145.0000 Du        
  24727 ****       131.0000 124.2500 145.0000 Du        
  24728 ****       131.0000 124.2500 145.2500 Du        
  24729 ****       131.0000 126.5000 165.7500 Du        
  24730 ****       131.0000 126.5000 166.0000 Du        
  24731 ****       131.0000 126.5000 166.2500 Du        
  24732 ****       131.0000 126.5000 167.5000 Du        
  24733 ****       131.0000 126.5000 167.7500 Du        
  24734 ****       131.0000 126.5000 168.0000 Du        
  24735 ****       131.0000 126.7500 165.5000 Du        
  24736 ****       131.0000 126.7500 165.7500 Du        
  24737 ****       131.0000 126.7500 166.0000 Du        
  24738 ****       131.0000 126.7500 166.2500 Du        
  24739 ****       131.0000 126.7500 166.5000 Du        
  24740 ****       131.0000 126.7500 166.7500 Du        
  24741 ****       131.0000 126.7500 167.0000 Du        
  24742 ****       131.0000 126.7500 167.2500 Du        
  24743 ****       131.0000 126.7500 167.5000 Du        
  24744 ****       131.0000 126.7500 167.7500 Du        
  24745 ****       131.0000 126.7500 168.0000 Du        
  24746 ****       131.0000 126.7500 168.2500 Du        
  24747 ****       131.0000 126.7500 168.5000 Du        
  24748 ****       131.0000 127.0000 165.5000 Du        
  24749 ****       131.0000 127.0000 165.7500 Du        
  24750 ****       131.0000 127.0000 166.0000 Du        
  24751 ****       131.0000 127.0000 166.2500 Du        
  24752 ****       131.0000 127.0000 166.5000 Du        
  24753 ****       131.0000 127.0000 166.7500 Du        
  24754 ****       131.0000 127.0000 167.0000 Du        
  24755 ****       131.0000 127.0000 167.2500 Du        
  24756 ****       131.0000 127.0000 167.5000 Du        
  24757 ****       131.0000 127.0000 167.7500 Du        
  24758 ****       131.0000 127.0000 168.0000 Du        
  24759 ****       131.0000 127.0000 168.2500 Du        
  24760 ****       131.0000 127.0000 168.5000 Du        
  24761 ****       131.0000 127.2500 165.2500 Du        
  24762 ****       131.0000 127.2500 165.5000 Du        
  24763 ****       131.0000 127.2500 165.7500 Du        
  24764 ****       131.0000 127.2500 166.0000 Du        
  24765 ****       131.0000 127.2500 166.2500 Du        
  24766 ****       131.0000 127.2500 166.5000 Du        
  24767 ****       131.0000 127.2500 166.7500 Du        
  24768 ****       131.0000 127.2500 167.0000 Du        
  24769 ****       131.0000 127.2500 167.2500 Du        
  24770 ****       131.0000 127.2500 167.5000 Du        
  24771 ****       131.0000 127.2500 167.7500 Du        
  24772 ****       131.0000 127.2500 168.0000 Du        
  24773 ****       131.0000 127.2500 168.2500 Du        
  24774 ****       131.0000 127.2500 168.5000 Du        
  24775 ****       131.0000 127.5000 165.2500 Du        
  24776 ****       131.0000 127.5000 165.5000 Du        
  24777 ****       131.0000 127.5000 165.7500 Du        
  24778 ****       131.0000 127.5000 166.0000 Du        
  24779 ****       131.0000 127.5000 166.2500 Du        
  24780 ****       131.0000 127.5000 166.5000 Du        
  24781 ****       131.0000 127.5000 166.7500 Du        
  24782 ****       131.0000 127.5000 167.0000 Du        
  24783 ****       131.0000 127.5000 167.2500 Du        
  24784 ****       131.0000 127.5000 167.5000 Du        
  24785 ****       131.0000 127.5000 167.7500 Du        
  24786 ****       131.0000 127.5000 168.0000 Du        
  24787 ****       131.0000 127.5000 168.2500 Du        
  24788 ****       131.0000 127.5000 168.5000 Du        
  24789 ****       131.0000 127.7500 165.2500 Du        
  24790 ****       131.0000 127.7500 165.5000 Du        
  24791 ****       131.0000 127.7500 165.7500 Du        
  24792 ****       131.0000 127.7500 166.0000 Du        
  24793 ****       131.0000 127.7500 166.2500 Du        
  24794 ****       131.0000 127.7500 166.5000 Du        
  24795 ****       131.0000 127.7500 166.7500 Du        
  24796 ****       131.0000 127.7500 167.0000 Du        
  24797 ****       131.0000 127.7500 167.2500 Du        
  24798 ****       131.0000 127.7500 167.5000 Du        
  24799 ****       131.0000 127.7500 167.7500 Du        
  24800 ****       131.0000 127.7500 168.0000 Du        
  24801 ****       131.0000 127.7500 168.2500 Du        
  24802 ****       131.0000 128.0000 165.5000 Du        
  24803 ****       131.0000 128.0000 165.7500 Du        
  24804 ****       131.0000 128.0000 166.0000 Du        
  24805 ****       131.0000 128.0000 166.2500 Du        
  24806 ****       131.0000 128.0000 166.5000 Du        
  24807 ****       131.0000 128.0000 166.7500 Du        
  24808 ****       131.0000 128.0000 167.0000 Du        
  24809 ****       131.0000 128.0000 167.2500 Du        
  24810 ****       131.0000 128.0000 167.5000 Du        
  24811 ****       131.0000 128.0000 167.7500 Du        
  24812 ****       131.0000 128.0000 168.0000 Du        
  24813 ****       131.0000 128.0000 168.2500 Du        
  24814 ****       131.0000 128.2500 166.0000 Du        
  24815 ****       131.0000 128.2500 166.2500 Du        
  24816 ****       131.0000 128.2500 166.5000 Du        
  24817 ****       131.0000 128.2500 166.7500 Du        
  24818 ****       131.0000 128.2500 167.0000 Du        
  24819 ****       131.0000 128.2500 167.2500 Du        
  24820 ****       131.0000 128.2500 167.5000 Du        
  24821 ****       131.0000 128.2500 167.7500 Du        
  24822 ****       131.0000 128.2500 168.0000 Du        
  24823 ****       131.0000 128.5000 166.5000 Du        
  24824 ****       131.0000 128.5000 166.7500 Du        
  24825 ****       131.0000 128.5000 167.0000 Du        
  24826 ****       131.0000 128.5000 167.2500 Du        
  24827 ****       131.0000 128.5000 167.5000 Du        
  24828 ****       131.0000 128.5000 167.7500 Du        
  24829 ****       131.0000 128.5000 168.0000 Du        
  24830 ****       131.0000 128.7500 166.7500 Du        
  24831 ****       131.0000 128.7500 167.0000 Du        
  24832 ****       131.0000 128.7500 167.2500 Du        
  24833 ****       131.0000 128.7500 167.5000 Du        
  24834 ****       131.0000 128.7500 167.7500 Du        
  24835 ****       131.0000 128.7500 168.0000 Du        
  24836 ****       131.0000 129.0000 166.7500 Du        
  24837 ****       131.0000 129.0000 167.0000 Du        
  24838 ****       131.0000 129.0000 167.2500 Du        
  24839 ****       131.0000 129.0000 167.5000 Du        
  24840 ****       131.0000 129.0000 167.7500 Du        
  24841 ****       131.0000 129.0000 168.0000 Du        
  24842 ****       131.0000 129.2500 167.0000 Du        
  24843 ****       131.0000 129.2500 167.2500 Du        
  24844 ****       131.0000 129.2500 167.5000 Du        
  24845 ****       131.0000 129.2500 167.7500 Du        
  24846 ****       131.0000 129.2500 168.0000 Du        
  24847 ****       131.0000 129.5000 167.0000 Du        
  24848 ****       131.0000 129.5000 167.2500 Du        
  24849 ****       131.0000 129.5000 167.5000 Du        
  24850 ****       131.0000 129.5000 167.7500 Du        
  24851 ****       131.0000 129.5000 168.0000 Du        
  24852 ****       131.0000 129.7500 154.7500 Du        
  24853 ****       131.0000 129.7500 155.0000 Du        
  24854 ****       131.0000 129.7500 167.2500 Du        
  24855 ****       131.0000 129.7500 167.5000 Du        
  24856 ****       131.0000 129.7500 167.7500 Du        
  24857 ****       131.0000 129.7500 168.0000 Du        
  24858 ****       131.0000 130.0000 154.5000 Du        
  24859 ****       131.0000 130.0000 154.7500 Du        
  24860 ****       131.0000 130.0000 155.0000 Du        
  24861 ****       131.0000 130.0000 167.2500 Du        
  24862 ****       131.0000 130.0000 167.5000 Du        
  24863 ****       131.0000 130.0000 167.7500 Du        
  24864 ****       131.0000 130.0000 168.0000 Du        
  24865 ****       131.0000 130.0000 168.2500 Du        
  24866 ****       131.0000 130.2500 154.5000 Du        
  24867 ****       131.0000 130.2500 154.7500 Du        
  24868 ****       131.0000 130.2500 155.0000 Du        
  24869 ****       131.0000 130.2500 155.2500 Du        
  24870 ****       131.0000 130.2500 167.2500 Du        
  24871 ****       131.0000 130.2500 167.5000 Du        
  24872 ****       131.0000 130.2500 167.7500 Du        
  24873 ****       131.0000 130.2500 168.0000 Du        
  24874 ****       131.0000 130.2500 168.2500 Du        
  24875 ****       131.0000 130.2500 168.5000 Du        
  24876 ****       131.0000 130.5000 167.0000 Du        
  24877 ****       131.0000 130.5000 167.2500 Du        
  24878 ****       131.0000 130.5000 167.5000 Du        
  24879 ****       131.0000 130.5000 167.7500 Du        
  24880 ****       131.0000 130.5000 168.0000 Du        
  24881 ****       131.0000 130.5000 168.2500 Du        
  24882 ****       131.0000 130.5000 168.5000 Du        
  24883 ****       131.0000 130.5000 168.7500 Du        
  24884 ****       131.0000 130.7500 167.0000 Du        
  24885 ****       131.0000 130.7500 167.2500 Du        
  24886 ****       131.0000 130.7500 167.5000 Du        
  24887 ****       131.0000 130.7500 167.7500 Du        
  24888 ****       131.0000 130.7500 168.0000 Du        
  24889 ****       131.0000 130.7500 168.2500 Du        
  24890 ****       131.0000 130.7500 168.5000 Du        
  24891 ****       131.0000 130.7500 168.7500 Du        
  24892 ****       131.0000 130.7500 169.0000 Du        
  24893 ****       131.0000 131.0000 155.0000 Du        
  24894 ****       131.0000 131.0000 155.2500 Du        
  24895 ****       131.0000 131.0000 167.0000 Du        
  24896 ****       131.0000 131.0000 167.2500 Du        
  24897 ****       131.0000 131.0000 167.5000 Du        
  24898 ****       131.0000 131.0000 167.7500 Du        
  24899 ****       131.0000 131.0000 168.0000 Du        
  24900 ****       131.0000 131.0000 168.2500 Du        
  24901 ****       131.0000 131.0000 168.5000 Du        
  24902 ****       131.0000 131.0000 168.7500 Du        
  24903 ****       131.0000 131.0000 169.0000 Du        
  24904 ****       131.0000 131.0000 169.2500 Du        
  24905 ****       131.0000 131.2500 155.2500 Du        
  24906 ****       131.0000 131.2500 167.0000 Du        
  24907 ****       131.0000 131.2500 167.2500 Du        
  24908 ****       131.0000 131.2500 167.5000 Du        
  24909 ****       131.0000 131.2500 167.7500 Du        
  24910 ****       131.0000 131.2500 168.0000 Du        
  24911 ****       131.0000 131.2500 168.2500 Du        
  24912 ****       131.0000 131.2500 168.5000 Du        
  24913 ****       131.0000 131.2500 168.7500 Du        
  24914 ****       131.0000 131.2500 169.0000 Du        
  24915 ****       131.0000 131.2500 169.2500 Du        
  24916 ****       131.0000 131.5000 167.0000 Du        
  24917 ****       131.0000 131.5000 167.2500 Du        
  24918 ****       131.0000 131.5000 167.5000 Du        
  24919 ****       131.0000 131.5000 167.7500 Du        
  24920 ****       131.0000 131.5000 168.0000 Du        
  24921 ****       131.0000 131.5000 168.2500 Du        
  24922 ****       131.0000 131.5000 168.5000 Du        
  24923 ****       131.0000 131.5000 168.7500 Du        
  24924 ****       131.0000 131.5000 169.0000 Du        
  24925 ****       131.0000 131.5000 169.2500 Du        
  24926 ****       131.0000 131.5000 169.5000 Du        
  24927 ****       131.0000 131.7500 137.7500 Du        
  24928 ****       131.0000 131.7500 138.0000 Du        
  24929 ****       131.0000 131.7500 138.2500 Du        
  24930 ****       131.0000 131.7500 167.0000 Du        
  24931 ****       131.0000 131.7500 167.2500 Du        
  24932 ****       131.0000 131.7500 167.5000 Du        
  24933 ****       131.0000 131.7500 167.7500 Du        
  24934 ****       131.0000 131.7500 168.0000 Du        
  24935 ****       131.0000 131.7500 168.2500 Du        
  24936 ****       131.0000 131.7500 168.5000 Du        
  24937 ****       131.0000 131.7500 168.7500 Du        
  24938 ****       131.0000 131.7500 169.0000 Du        
  24939 ****       131.0000 131.7500 169.2500 Du        
  24940 ****       131.0000 131.7500 169.5000 Du        
  24941 ****       131.0000 132.0000 137.5000 Du        
  24942 ****       131.0000 132.0000 137.7500 Du        
  24943 ****       131.0000 132.0000 138.0000 Du        
  24944 ****       131.0000 132.0000 138.2500 Du        
  24945 ****       131.0000 132.0000 138.5000 Du        
  24946 ****       131.0000 132.0000 138.7500 Du        
  24947 ****       131.0000 132.0000 139.0000 Du        
  24948 ****       131.0000 132.0000 167.0000 Du        
  24949 ****       131.0000 132.0000 167.2500 Du        
  24950 ****       131.0000 132.0000 167.5000 Du        
  24951 ****       131.0000 132.0000 167.7500 Du        
  24952 ****       131.0000 132.2500 137.2500 Du        
  24953 ****       131.0000 132.2500 137.5000 Du        
  24954 ****       131.0000 132.2500 137.7500 Du        
  24955 ****       131.0000 132.2500 138.0000 Du        
  24956 ****       131.0000 132.2500 138.2500 Du        
  24957 ****       131.0000 132.2500 138.5000 Du        
  24958 ****       131.0000 132.2500 138.7500 Du        
  24959 ****       131.0000 132.2500 139.0000 Du        
  24960 ****       131.0000 132.2500 139.2500 Du        
  24961 ****       131.0000 132.5000 137.7500 Du        
  24962 ****       131.0000 132.5000 138.0000 Du        
  24963 ****       131.0000 132.5000 138.2500 Du        
  24964 ****       131.0000 132.5000 138.5000 Du        
  24965 ****       131.0000 132.5000 138.7500 Du        
  24966 ****       131.0000 132.5000 139.0000 Du        
  24967 ****       131.0000 132.5000 139.2500 Du        
  24968 ****       131.0000 132.5000 139.5000 Du        
  24969 ****       131.0000 132.5000 155.5000 Du        
  24970 ****       131.0000 132.7500 137.7500 Du        
  24971 ****       131.0000 132.7500 138.0000 Du        
  24972 ****       131.0000 132.7500 138.2500 Du        
  24973 ****       131.0000 132.7500 138.5000 Du        
  24974 ****       131.0000 132.7500 138.7500 Du        
  24975 ****       131.0000 132.7500 139.0000 Du        
  24976 ****       131.0000 132.7500 139.2500 Du        
  24977 ****       131.0000 132.7500 139.5000 Du        
  24978 ****       131.0000 132.7500 139.7500 Du        
  24979 ****       131.0000 132.7500 140.0000 Du        
  24980 ****       131.0000 132.7500 155.0000 Du        
  24981 ****       131.0000 132.7500 155.2500 Du        
  24982 ****       131.0000 132.7500 155.5000 Du        
  24983 ****       131.0000 133.0000 138.0000 Du        
  24984 ****       131.0000 133.0000 138.2500 Du        
  24985 ****       131.0000 133.0000 138.5000 Du        
  24986 ****       131.0000 133.0000 138.7500 Du        
  24987 ****       131.0000 133.0000 139.0000 Du        
  24988 ****       131.0000 133.0000 139.2500 Du        
  24989 ****       131.0000 133.0000 139.5000 Du        
  24990 ****       131.0000 133.0000 139.7500 Du        
  24991 ****       131.0000 133.0000 140.0000 Du        
  24992 ****       131.0000 133.0000 140.2500 Du        
  24993 ****       131.0000 133.0000 140.5000 Du        
  24994 ****       131.0000 133.0000 140.7500 Du        
  24995 ****       131.0000 133.0000 141.0000 Du        
  24996 ****       131.0000 133.0000 155.0000 Du        
  24997 ****       131.0000 133.0000 155.2500 Du        
  24998 ****       131.0000 133.0000 155.5000 Du        
  24999 ****       131.0000 133.0000 155.7500 Du        
  25000 ****       131.0000 133.2500 138.2500 Du        
  25001 ****       131.0000 133.2500 138.5000 Du        
  25002 ****       131.0000 133.2500 138.7500 Du        
  25003 ****       131.0000 133.2500 139.0000 Du        
  25004 ****       131.0000 133.2500 139.2500 Du        
  25005 ****       131.0000 133.2500 139.5000 Du        
  25006 ****       131.0000 133.2500 139.7500 Du        
  25007 ****       131.0000 133.2500 140.0000 Du        
  25008 ****       131.0000 133.2500 140.2500 Du        
  25009 ****       131.0000 133.2500 140.5000 Du        
  25010 ****       131.0000 133.2500 140.7500 Du        
  25011 ****       131.0000 133.2500 141.0000 Du        
  25012 ****       131.0000 133.2500 141.2500 Du        
  25013 ****       131.0000 133.2500 154.7500 Du        
  25014 ****       131.0000 133.2500 155.0000 Du        
  25015 ****       131.0000 133.2500 155.2500 Du        
  25016 ****       131.0000 133.2500 155.5000 Du        
  25017 ****       131.0000 133.2500 155.7500 Du        
  25018 ****       131.0000 133.2500 156.0000 Du        
  25019 ****       131.0000 133.5000 138.5000 Du        
  25020 ****       131.0000 133.5000 138.7500 Du        
  25021 ****       131.0000 133.5000 139.0000 Du        
  25022 ****       131.0000 133.5000 139.2500 Du        
  25023 ****       131.0000 133.5000 139.5000 Du        
  25024 ****       131.0000 133.5000 139.7500 Du        
  25025 ****       131.0000 133.5000 140.0000 Du        
  25026 ****       131.0000 133.5000 140.2500 Du        
  25027 ****       131.0000 133.5000 140.5000 Du        
  25028 ****       131.0000 133.5000 140.7500 Du        
  25029 ****       131.0000 133.5000 141.0000 Du        
  25030 ****       131.0000 133.5000 141.2500 Du        
  25031 ****       131.0000 133.5000 154.5000 Du        
  25032 ****       131.0000 133.5000 154.7500 Du        
  25033 ****       131.0000 133.5000 155.0000 Du        
  25034 ****       131.0000 133.5000 155.2500 Du        
  25035 ****       131.0000 133.5000 155.5000 Du        
  25036 ****       131.0000 133.5000 155.7500 Du        
  25037 ****       131.0000 133.5000 156.0000 Du        
  25038 ****       131.0000 133.7500 138.5000 Du        
  25039 ****       131.0000 133.7500 138.7500 Du        
  25040 ****       131.0000 133.7500 139.0000 Du        
  25041 ****       131.0000 133.7500 139.2500 Du        
  25042 ****       131.0000 133.7500 139.5000 Du        
  25043 ****       131.0000 133.7500 139.7500 Du        
  25044 ****       131.0000 133.7500 140.0000 Du        
  25045 ****       131.0000 133.7500 140.2500 Du        
  25046 ****       131.0000 133.7500 140.5000 Du        
  25047 ****       131.0000 133.7500 140.7500 Du        
  25048 ****       131.0000 133.7500 141.0000 Du        
  25049 ****       131.0000 133.7500 141.2500 Du        
  25050 ****       131.0000 133.7500 154.5000 Du        
  25051 ****       131.0000 133.7500 154.7500 Du        
  25052 ****       131.0000 133.7500 155.0000 Du        
  25053 ****       131.0000 133.7500 155.2500 Du        
  25054 ****       131.0000 133.7500 155.5000 Du        
  25055 ****       131.0000 133.7500 155.7500 Du        
  25056 ****       131.0000 133.7500 156.0000 Du        
  25057 ****       131.0000 133.7500 156.2500 Du        
  25058 ****       131.0000 134.0000 139.0000 Du        
  25059 ****       131.0000 134.0000 139.2500 Du        
  25060 ****       131.0000 134.0000 139.5000 Du        
  25061 ****       131.0000 134.0000 139.7500 Du        
  25062 ****       131.0000 134.0000 140.0000 Du        
  25063 ****       131.0000 134.0000 140.2500 Du        
  25064 ****       131.0000 134.0000 140.5000 Du        
  25065 ****       131.0000 134.0000 140.7500 Du        
  25066 ****       131.0000 134.0000 141.0000 Du        
  25067 ****       131.0000 134.0000 141.2500 Du        
  25068 ****       131.0000 134.0000 154.7500 Du        
  25069 ****       131.0000 134.0000 155.0000 Du        
  25070 ****       131.0000 134.0000 155.2500 Du        
  25071 ****       131.0000 134.0000 155.5000 Du        
  25072 ****       131.0000 134.0000 155.7500 Du        
  25073 ****       131.0000 134.0000 156.0000 Du        
  25074 ****       131.0000 134.0000 156.2500 Du        
  25075 ****       131.0000 134.0000 156.5000 Du        
  25076 ****       131.0000 134.2500 140.0000 Du        
  25077 ****       131.0000 134.2500 140.2500 Du        
  25078 ****       131.0000 134.2500 140.5000 Du        
  25079 ****       131.0000 134.2500 155.2500 Du        
  25080 ****       131.0000 134.2500 155.5000 Du        
  25081 ****       131.0000 134.2500 155.7500 Du        
  25082 ****       131.0000 134.2500 156.0000 Du        
  25083 ****       131.0000 134.2500 156.2500 Du        
  25084 ****       131.0000 134.2500 156.5000 Du        
  25085 ****       131.0000 134.2500 156.7500 Du        
  25086 ****       131.0000 134.5000 155.5000 Du        
  25087 ****       131.0000 134.5000 155.7500 Du        
  25088 ****       131.0000 134.5000 156.0000 Du        
  25089 ****       131.0000 134.5000 156.2500 Du        
  25090 ****       131.0000 134.5000 156.5000 Du        
  25091 ****       131.0000 134.5000 156.7500 Du        
  25092 ****       131.0000 135.0000 165.2500 Du        
  25093 ****       131.0000 135.2500 165.0000 Du        
  25094 ****       131.0000 135.2500 165.2500 Du        
  25095 ****       131.0000 135.2500 165.5000 Du        
  25096 ****       131.0000 135.5000 165.0000 Du        
  25097 ****       131.0000 135.5000 165.2500 Du        
  25098 ****       131.0000 135.5000 165.5000 Du        
  25099 ****       131.0000 136.2500  85.7500 Du        
  25100 ****       131.0000 137.7500  96.0000 Du        
  25101 ****       131.0000 137.7500  96.2500 Du        
  25102 ****       131.0000 137.7500  96.5000 Du        
  25103 ****       131.0000 137.7500  96.7500 Du        
  25104 ****       131.0000 138.0000  96.0000 Du        
  25105 ****       131.0000 138.0000  96.2500 Du        
  25106 ****       131.0000 138.0000  96.5000 Du        
  25107 ****       131.0000 138.0000  96.7500 Du        
  25108 ****       131.0000 138.0000  97.0000 Du        
  25109 ****       131.0000 138.2500  96.0000 Du        
  25110 ****       131.0000 138.2500  96.2500 Du        
  25111 ****       131.0000 138.2500  96.5000 Du        
  25112 ****       131.0000 138.2500  96.7500 Du        
  25113 ****       131.0000 138.2500  97.0000 Du        
  25114 ****       131.0000 139.2500 104.2500 Du        
  25115 ****       131.0000 139.2500 104.5000 Du        
  25116 ****       131.0000 139.2500 104.7500 Du        
  25117 ****       131.0000 139.2500 105.0000 Du        
  25118 ****       131.0000 139.2500 105.2500 Du        
  25119 ****       131.0000 139.5000 104.0000 Du        
  25120 ****       131.0000 139.5000 104.2500 Du        
  25121 ****       131.0000 139.5000 104.5000 Du        
  25122 ****       131.0000 139.5000 104.7500 Du        
  25123 ****       131.0000 139.5000 105.0000 Du        
  25124 ****       131.0000 139.5000 105.2500 Du        
  25125 ****       131.0000 139.5000 105.5000 Du        
  25126 ****       131.0000 139.5000 105.7500 Du        
  25127 ****       131.0000 139.5000 106.0000 Du        
  25128 ****       131.0000 139.7500 103.7500 Du        
  25129 ****       131.0000 139.7500 104.0000 Du        
  25130 ****       131.0000 139.7500 104.2500 Du        
  25131 ****       131.0000 139.7500 104.5000 Du        
  25132 ****       131.0000 139.7500 104.7500 Du        
  25133 ****       131.0000 139.7500 105.0000 Du        
  25134 ****       131.0000 139.7500 105.2500 Du        
  25135 ****       131.0000 139.7500 105.5000 Du        
  25136 ****       131.0000 139.7500 105.7500 Du        
  25137 ****       131.0000 139.7500 106.0000 Du        
  25138 ****       131.0000 139.7500 106.2500 Du        
  25139 ****       131.0000 140.0000 103.5000 Du        
  25140 ****       131.0000 140.0000 103.7500 Du        
  25141 ****       131.0000 140.0000 104.0000 Du        
  25142 ****       131.0000 140.0000 104.2500 Du        
  25143 ****       131.0000 140.0000 104.5000 Du        
  25144 ****       131.0000 140.0000 104.7500 Du        
  25145 ****       131.0000 140.0000 105.0000 Du        
  25146 ****       131.0000 140.0000 105.2500 Du        
  25147 ****       131.0000 140.0000 105.5000 Du        
  25148 ****       131.0000 140.0000 105.7500 Du        
  25149 ****       131.0000 140.0000 106.0000 Du        
  25150 ****       131.0000 140.0000 106.2500 Du        
  25151 ****       131.0000 140.2500 103.2500 Du        
  25152 ****       131.0000 140.2500 103.5000 Du        
  25153 ****       131.0000 140.2500 103.7500 Du        
  25154 ****       131.0000 140.2500 104.0000 Du        
  25155 ****       131.0000 140.2500 104.2500 Du        
  25156 ****       131.0000 140.2500 104.5000 Du        
  25157 ****       131.0000 140.2500 104.7500 Du        
  25158 ****       131.0000 140.2500 105.0000 Du        
  25159 ****       131.0000 140.2500 105.2500 Du        
  25160 ****       131.0000 140.2500 105.5000 Du        
  25161 ****       131.0000 140.2500 105.7500 Du        
  25162 ****       131.0000 140.2500 106.0000 Du        
  25163 ****       131.0000 140.5000 103.0000 Du        
  25164 ****       131.0000 140.5000 103.2500 Du        
  25165 ****       131.0000 140.5000 103.5000 Du        
  25166 ****       131.0000 140.5000 103.7500 Du        
  25167 ****       131.0000 140.5000 104.0000 Du        
  25168 ****       131.0000 140.5000 104.2500 Du        
  25169 ****       131.0000 140.5000 104.5000 Du        
  25170 ****       131.0000 140.5000 104.7500 Du        
  25171 ****       131.0000 140.5000 105.0000 Du        
  25172 ****       131.0000 140.5000 105.2500 Du        
  25173 ****       131.0000 140.5000 105.5000 Du        
  25174 ****       131.0000 140.5000 105.7500 Du        
  25175 ****       131.0000 140.7500 102.7500 Du        
  25176 ****       131.0000 140.7500 103.0000 Du        
  25177 ****       131.0000 140.7500 103.2500 Du        
  25178 ****       131.0000 140.7500 103.5000 Du        
  25179 ****       131.0000 140.7500 103.7500 Du        
  25180 ****       131.0000 140.7500 104.0000 Du        
  25181 ****       131.0000 140.7500 104.2500 Du        
  25182 ****       131.0000 140.7500 104.5000 Du        
  25183 ****       131.0000 140.7500 104.7500 Du        
  25184 ****       131.0000 140.7500 105.0000 Du        
  25185 ****       131.0000 140.7500 105.2500 Du        
  25186 ****       131.0000 140.7500 105.5000 Du        
  25187 ****       131.0000 141.0000 102.2500 Du        
  25188 ****       131.0000 141.0000 102.5000 Du        
  25189 ****       131.0000 141.0000 102.7500 Du        
  25190 ****       131.0000 141.0000 103.0000 Du        
  25191 ****       131.0000 141.0000 103.2500 Du        
  25192 ****       131.0000 141.0000 103.5000 Du        
  25193 ****       131.0000 141.0000 103.7500 Du        
  25194 ****       131.0000 141.0000 104.0000 Du        
  25195 ****       131.0000 141.0000 104.2500 Du        
  25196 ****       131.0000 141.0000 104.5000 Du        
  25197 ****       131.0000 141.0000 104.7500 Du        
  25198 ****       131.0000 141.0000 105.0000 Du        
  25199 ****       131.0000 141.0000 105.2500 Du        
  25200 ****       131.0000 141.2500 102.0000 Du        
  25201 ****       131.0000 141.2500 102.2500 Du        
  25202 ****       131.0000 141.2500 102.5000 Du        
  25203 ****       131.0000 141.2500 102.7500 Du        
  25204 ****       131.0000 141.2500 103.0000 Du        
  25205 ****       131.0000 141.2500 103.2500 Du        
  25206 ****       131.0000 141.2500 103.5000 Du        
  25207 ****       131.0000 141.2500 103.7500 Du        
  25208 ****       131.0000 141.2500 104.0000 Du        
  25209 ****       131.0000 141.2500 104.2500 Du        
  25210 ****       131.0000 141.2500 104.5000 Du        
  25211 ****       131.0000 141.2500 104.7500 Du        
  25212 ****       131.0000 141.2500 105.0000 Du        
  25213 ****       131.0000 141.5000 102.7500 Du        
  25214 ****       131.0000 141.5000 103.0000 Du        
  25215 ****       131.0000 141.5000 103.2500 Du        
  25216 ****       131.0000 141.5000 103.5000 Du        
  25217 ****       131.0000 141.5000 103.7500 Du        
  25218 ****       131.0000 141.5000 104.0000 Du        
  25219 ****       131.0000 141.5000 104.2500 Du        
  25220 ****       131.0000 141.5000 104.5000 Du        
  25221 ****       131.0000 141.7500 102.5000 Du        
  25222 ****       131.0000 141.7500 102.7500 Du        
  25223 ****       131.0000 141.7500 103.0000 Du        
  25224 ****       131.0000 141.7500 103.2500 Du        
  25225 ****       131.0000 141.7500 103.5000 Du        
  25226 ****       131.0000 141.7500 103.7500 Du        
  25227 ****       131.0000 141.7500 104.0000 Du        
  25228 ****       131.0000 141.7500 104.2500 Du        
  25229 ****       131.0000 142.0000 102.0000 Du        
  25230 ****       131.0000 142.0000 102.2500 Du        
  25231 ****       131.0000 142.0000 102.5000 Du        
  25232 ****       131.0000 142.0000 102.7500 Du        
  25233 ****       131.0000 142.0000 103.0000 Du        
  25234 ****       131.0000 142.0000 103.2500 Du        
  25235 ****       131.0000 142.0000 103.5000 Du        
  25236 ****       131.0000 142.0000 103.7500 Du        
  25237 ****       131.0000 142.0000 104.0000 Du        
  25238 ****       131.0000 142.2500 102.0000 Du        
  25239 ****       131.0000 142.2500 102.2500 Du        
  25240 ****       131.0000 142.2500 102.5000 Du        
  25241 ****       131.0000 142.2500 102.7500 Du        
  25242 ****       131.0000 142.2500 103.0000 Du        
  25243 ****       131.0000 142.2500 103.2500 Du        
  25244 ****       131.0000 142.2500 103.5000 Du        
  25245 ****       131.0000 142.2500 103.7500 Du        
  25246 ****       131.0000 142.5000 102.5000 Du        
  25247 ****       131.0000 142.5000 102.7500 Du        
  25248 ****       131.0000 142.5000 103.0000 Du        
  25249 ****       131.0000 142.5000 103.2500 Du        
  25250 ****       131.0000 142.5000 103.5000 Du        
  25251 ****       131.0000 142.7500 102.5000 Du        
  25252 ****       131.0000 142.7500 102.7500 Du        
  25253 ****       131.0000 142.7500 103.0000 Du        
  25254 ****       131.0000 142.7500 103.2500 Du        
  25255 ****       131.0000 142.7500 103.5000 Du        
  25256 ****       131.0000 143.0000  98.5000 Du        
  25257 ****       131.0000 143.0000  98.7500 Du        
  25258 ****       131.0000 143.0000  99.0000 Du        
  25259 ****       131.0000 143.0000  99.2500 Du        
  25260 ****       131.0000 143.0000  99.5000 Du        
  25261 ****       131.0000 143.0000  99.7500 Du        
  25262 ****       131.0000 143.0000 100.0000 Du        
  25263 ****       131.0000 143.0000 102.7500 Du        
  25264 ****       131.0000 143.0000 103.0000 Du        
  25265 ****       131.0000 143.0000 103.2500 Du        
  25266 ****       131.0000 143.2500  98.5000 Du        
  25267 ****       131.0000 143.2500  98.7500 Du        
  25268 ****       131.0000 143.2500  99.0000 Du        
  25269 ****       131.0000 143.2500  99.2500 Du        
  25270 ****       131.0000 143.2500  99.5000 Du        
  25271 ****       131.0000 143.2500  99.7500 Du        
  25272 ****       131.0000 143.5000  98.2500 Du        
  25273 ****       131.0000 143.5000  98.5000 Du        
  25274 ****       131.0000 143.5000  98.7500 Du        
  25275 ****       131.0000 143.5000  99.0000 Du        
  25276 ****       131.0000 143.5000  99.2500 Du        
  25277 ****       131.0000 143.5000  99.5000 Du        
  25278 ****       131.0000 143.5000  99.7500 Du        
  25279 ****       131.0000 143.7500  98.5000 Du        
  25280 ****       131.0000 143.7500  98.7500 Du        
  25281 ****       131.0000 143.7500  99.0000 Du        
  25282 ****       131.0000 143.7500  99.2500 Du        
  25283 ****       131.0000 143.7500  99.5000 Du        
  25284 ****       131.0000 143.7500  99.7500 Du        
  25285 ****       131.0000 143.7500 147.0000 Du        
  25286 ****       131.0000 144.0000  98.7500 Du        
  25287 ****       131.0000 144.0000  99.0000 Du        
  25288 ****       131.0000 144.0000  99.2500 Du        
  25289 ****       131.0000 144.0000  99.5000 Du        
  25290 ****       131.0000 144.0000 146.5000 Du        
  25291 ****       131.0000 144.0000 146.7500 Du        
  25292 ****       131.0000 144.0000 147.0000 Du        
  25293 ****       131.0000 144.0000 147.2500 Du        
  25294 ****       131.0000 144.0000 147.5000 Du        
  25295 ****       131.0000 144.2500  99.0000 Du        
  25296 ****       131.0000 144.2500  99.2500 Du        
  25297 ****       131.0000 144.2500 146.5000 Du        
  25298 ****       131.0000 144.2500 146.7500 Du        
  25299 ****       131.0000 144.2500 147.0000 Du        
  25300 ****       131.0000 144.2500 147.2500 Du        
  25301 ****       131.0000 144.2500 147.5000 Du        
  25302 ****       131.0000 144.5000  99.2500 Du        
  25303 ****       131.0000 144.5000 146.5000 Du        
  25304 ****       131.0000 144.5000 146.7500 Du        
  25305 ****       131.0000 144.5000 147.0000 Du        
  25306 ****       131.0000 144.5000 147.2500 Du        
  25307 ****       131.0000 144.5000 147.5000 Du        
  25308 ****       131.0000 144.7500 146.5000 Du        
  25309 ****       131.0000 144.7500 146.7500 Du        
  25310 ****       131.0000 144.7500 147.0000 Du        
  25311 ****       131.0000 144.7500 147.2500 Du        
  25312 ****       131.0000 144.7500 147.5000 Du        
  25313 ****       131.0000 145.0000 146.5000 Du        
  25314 ****       131.0000 145.0000 146.7500 Du        
  25315 ****       131.0000 145.0000 147.0000 Du        
  25316 ****       131.2500 121.0000 140.7500 Du        
  25317 ****       131.2500 121.0000 141.0000 Du        
  25318 ****       131.2500 121.0000 141.2500 Du        
  25319 ****       131.2500 121.0000 142.2500 Du        
  25320 ****       131.2500 121.0000 142.7500 Du        
  25321 ****       131.2500 121.0000 143.0000 Du        
  25322 ****       131.2500 121.0000 143.2500 Du        
  25323 ****       131.2500 121.0000 143.5000 Du        
  25324 ****       131.2500 121.0000 143.7500 Du        
  25325 ****       131.2500 121.0000 144.0000 Du        
  25326 ****       131.2500 121.0000 144.2500 Du        
  25327 ****       131.2500 121.0000 144.5000 Du        
  25328 ****       131.2500 121.0000 144.7500 Du        
  25329 ****       131.2500 121.2500 141.0000 Du        
  25330 ****       131.2500 121.2500 141.2500 Du        
  25331 ****       131.2500 121.2500 141.7500 Du        
  25332 ****       131.2500 121.2500 142.0000 Du        
  25333 ****       131.2500 121.2500 142.2500 Du        
  25334 ****       131.2500 121.2500 142.5000 Du        
  25335 ****       131.2500 121.2500 142.7500 Du        
  25336 ****       131.2500 121.2500 143.0000 Du        
  25337 ****       131.2500 121.2500 143.2500 Du        
  25338 ****       131.2500 121.2500 143.5000 Du        
  25339 ****       131.2500 121.2500 143.7500 Du        
  25340 ****       131.2500 121.2500 144.0000 Du        
  25341 ****       131.2500 121.2500 144.2500 Du        
  25342 ****       131.2500 121.2500 144.5000 Du        
  25343 ****       131.2500 121.2500 144.7500 Du        
  25344 ****       131.2500 121.2500 145.0000 Du        
  25345 ****       131.2500 121.5000 142.0000 Du        
  25346 ****       131.2500 121.5000 142.2500 Du        
  25347 ****       131.2500 121.5000 142.5000 Du        
  25348 ****       131.2500 121.5000 142.7500 Du        
  25349 ****       131.2500 121.5000 143.0000 Du        
  25350 ****       131.2500 121.5000 143.2500 Du        
  25351 ****       131.2500 121.5000 143.5000 Du        
  25352 ****       131.2500 121.5000 143.7500 Du        
  25353 ****       131.2500 121.5000 144.0000 Du        
  25354 ****       131.2500 121.5000 144.2500 Du        
  25355 ****       131.2500 121.5000 144.5000 Du        
  25356 ****       131.2500 121.5000 144.7500 Du        
  25357 ****       131.2500 121.5000 145.0000 Du        
  25358 ****       131.2500 121.7500 142.2500 Du        
  25359 ****       131.2500 121.7500 142.5000 Du        
  25360 ****       131.2500 121.7500 142.7500 Du        
  25361 ****       131.2500 121.7500 143.0000 Du        
  25362 ****       131.2500 121.7500 143.2500 Du        
  25363 ****       131.2500 121.7500 143.5000 Du        
  25364 ****       131.2500 121.7500 143.7500 Du        
  25365 ****       131.2500 121.7500 144.0000 Du        
  25366 ****       131.2500 121.7500 144.2500 Du        
  25367 ****       131.2500 121.7500 144.5000 Du        
  25368 ****       131.2500 121.7500 144.7500 Du        
  25369 ****       131.2500 121.7500 145.0000 Du        
  25370 ****       131.2500 122.0000 142.7500 Du        
  25371 ****       131.2500 122.0000 143.0000 Du        
  25372 ****       131.2500 122.0000 143.2500 Du        
  25373 ****       131.2500 122.0000 143.5000 Du        
  25374 ****       131.2500 122.0000 143.7500 Du        
  25375 ****       131.2500 122.0000 144.0000 Du        
  25376 ****       131.2500 122.0000 144.2500 Du        
  25377 ****       131.2500 122.0000 144.5000 Du        
  25378 ****       131.2500 122.0000 144.7500 Du        
  25379 ****       131.2500 122.0000 145.0000 Du        
  25380 ****       131.2500 122.2500 143.0000 Du        
  25381 ****       131.2500 122.2500 143.2500 Du        
  25382 ****       131.2500 122.2500 143.5000 Du        
  25383 ****       131.2500 122.2500 143.7500 Du        
  25384 ****       131.2500 122.2500 144.0000 Du        
  25385 ****       131.2500 122.2500 144.2500 Du        
  25386 ****       131.2500 122.2500 144.5000 Du        
  25387 ****       131.2500 122.2500 144.7500 Du        
  25388 ****       131.2500 122.2500 145.0000 Du        
  25389 ****       131.2500 122.5000 143.0000 Du        
  25390 ****       131.2500 122.5000 143.2500 Du        
  25391 ****       131.2500 122.5000 143.5000 Du        
  25392 ****       131.2500 122.5000 143.7500 Du        
  25393 ****       131.2500 122.5000 144.0000 Du        
  25394 ****       131.2500 122.5000 144.2500 Du        
  25395 ****       131.2500 122.5000 144.5000 Du        
  25396 ****       131.2500 122.5000 144.7500 Du        
  25397 ****       131.2500 122.5000 145.0000 Du        
  25398 ****       131.2500 122.7500 143.2500 Du        
  25399 ****       131.2500 122.7500 143.5000 Du        
  25400 ****       131.2500 122.7500 143.7500 Du        
  25401 ****       131.2500 122.7500 144.0000 Du        
  25402 ****       131.2500 122.7500 144.2500 Du        
  25403 ****       131.2500 122.7500 144.5000 Du        
  25404 ****       131.2500 122.7500 144.7500 Du        
  25405 ****       131.2500 122.7500 145.0000 Du        
  25406 ****       131.2500 123.0000 143.7500 Du        
  25407 ****       131.2500 123.0000 144.0000 Du        
  25408 ****       131.2500 123.0000 144.2500 Du        
  25409 ****       131.2500 123.0000 144.5000 Du        
  25410 ****       131.2500 123.0000 144.7500 Du        
  25411 ****       131.2500 123.0000 145.0000 Du        
  25412 ****       131.2500 123.2500 144.0000 Du        
  25413 ****       131.2500 123.2500 144.2500 Du        
  25414 ****       131.2500 123.2500 144.5000 Du        
  25415 ****       131.2500 123.2500 144.7500 Du        
  25416 ****       131.2500 123.2500 145.0000 Du        
  25417 ****       131.2500 123.5000 144.0000 Du        
  25418 ****       131.2500 123.5000 144.2500 Du        
  25419 ****       131.2500 123.5000 144.5000 Du        
  25420 ****       131.2500 123.5000 144.7500 Du        
  25421 ****       131.2500 123.5000 145.0000 Du        
  25422 ****       131.2500 123.7500 144.2500 Du        
  25423 ****       131.2500 123.7500 144.5000 Du        
  25424 ****       131.2500 123.7500 144.7500 Du        
  25425 ****       131.2500 123.7500 145.0000 Du        
  25426 ****       131.2500 123.7500 145.2500 Du        
  25427 ****       131.2500 124.0000 144.7500 Du        
  25428 ****       131.2500 124.0000 145.0000 Du        
  25429 ****       131.2500 124.0000 145.2500 Du        
  25430 ****       131.2500 124.2500 145.0000 Du        
  25431 ****       131.2500 124.2500 145.2500 Du        
  25432 ****       131.2500 124.7500 146.0000 Du        
  25433 ****       131.2500 125.0000 146.0000 Du        
  25434 ****       131.2500 125.0000 146.2500 Du        
  25435 ****       131.2500 126.2500 165.7500 Du        
  25436 ****       131.2500 126.2500 166.0000 Du        
  25437 ****       131.2500 126.5000 165.5000 Du        
  25438 ****       131.2500 126.5000 165.7500 Du        
  25439 ****       131.2500 126.5000 166.0000 Du        
  25440 ****       131.2500 126.5000 166.2500 Du        
  25441 ****       131.2500 126.5000 166.5000 Du        
  25442 ****       131.2500 126.5000 166.7500 Du        
  25443 ****       131.2500 126.5000 167.0000 Du        
  25444 ****       131.2500 126.5000 167.2500 Du        
  25445 ****       131.2500 126.5000 167.5000 Du        
  25446 ****       131.2500 126.5000 167.7500 Du        
  25447 ****       131.2500 126.5000 168.0000 Du        
  25448 ****       131.2500 126.7500 165.5000 Du        
  25449 ****       131.2500 126.7500 165.7500 Du        
  25450 ****       131.2500 126.7500 166.0000 Du        
  25451 ****       131.2500 126.7500 166.2500 Du        
  25452 ****       131.2500 126.7500 166.5000 Du        
  25453 ****       131.2500 126.7500 166.7500 Du        
  25454 ****       131.2500 126.7500 167.0000 Du        
  25455 ****       131.2500 126.7500 167.2500 Du        
  25456 ****       131.2500 126.7500 167.5000 Du        
  25457 ****       131.2500 126.7500 167.7500 Du        
  25458 ****       131.2500 126.7500 168.0000 Du        
  25459 ****       131.2500 126.7500 168.2500 Du        
  25460 ****       131.2500 126.7500 168.5000 Du        
  25461 ****       131.2500 127.0000 165.5000 Du        
  25462 ****       131.2500 127.0000 165.7500 Du        
  25463 ****       131.2500 127.0000 166.0000 Du        
  25464 ****       131.2500 127.0000 166.2500 Du        
  25465 ****       131.2500 127.0000 166.5000 Du        
  25466 ****       131.2500 127.0000 166.7500 Du        
  25467 ****       131.2500 127.0000 167.0000 Du        
  25468 ****       131.2500 127.0000 167.2500 Du        
  25469 ****       131.2500 127.0000 167.5000 Du        
  25470 ****       131.2500 127.0000 167.7500 Du        
  25471 ****       131.2500 127.0000 168.0000 Du        
  25472 ****       131.2500 127.0000 168.2500 Du        
  25473 ****       131.2500 127.0000 168.5000 Du        
  25474 ****       131.2500 127.2500 165.2500 Du        
  25475 ****       131.2500 127.2500 165.5000 Du        
  25476 ****       131.2500 127.2500 165.7500 Du        
  25477 ****       131.2500 127.2500 166.0000 Du        
  25478 ****       131.2500 127.2500 166.2500 Du        
  25479 ****       131.2500 127.2500 166.5000 Du        
  25480 ****       131.2500 127.2500 166.7500 Du        
  25481 ****       131.2500 127.2500 167.0000 Du        
  25482 ****       131.2500 127.2500 167.2500 Du        
  25483 ****       131.2500 127.2500 167.5000 Du        
  25484 ****       131.2500 127.2500 167.7500 Du        
  25485 ****       131.2500 127.2500 168.0000 Du        
  25486 ****       131.2500 127.2500 168.2500 Du        
  25487 ****       131.2500 127.5000 165.2500 Du        
  25488 ****       131.2500 127.5000 165.5000 Du        
  25489 ****       131.2500 127.5000 165.7500 Du        
  25490 ****       131.2500 127.5000 166.0000 Du        
  25491 ****       131.2500 127.5000 166.2500 Du        
  25492 ****       131.2500 127.5000 166.5000 Du        
  25493 ****       131.2500 127.5000 166.7500 Du        
  25494 ****       131.2500 127.5000 167.0000 Du        
  25495 ****       131.2500 127.5000 167.2500 Du        
  25496 ****       131.2500 127.5000 167.5000 Du        
  25497 ****       131.2500 127.5000 167.7500 Du        
  25498 ****       131.2500 127.7500 165.2500 Du        
  25499 ****       131.2500 127.7500 165.5000 Du        
  25500 ****       131.2500 127.7500 165.7500 Du        
  25501 ****       131.2500 127.7500 166.0000 Du        
  25502 ****       131.2500 127.7500 166.2500 Du        
  25503 ****       131.2500 127.7500 166.5000 Du        
  25504 ****       131.2500 127.7500 166.7500 Du        
  25505 ****       131.2500 127.7500 167.0000 Du        
  25506 ****       131.2500 127.7500 167.2500 Du        
  25507 ****       131.2500 127.7500 167.5000 Du        
  25508 ****       131.2500 128.0000 165.5000 Du        
  25509 ****       131.2500 128.0000 165.7500 Du        
  25510 ****       131.2500 128.0000 166.0000 Du        
  25511 ****       131.2500 128.0000 166.2500 Du        
  25512 ****       131.2500 128.0000 166.5000 Du        
  25513 ****       131.2500 128.0000 166.7500 Du        
  25514 ****       131.2500 128.0000 167.0000 Du        
  25515 ****       131.2500 128.0000 167.2500 Du        
  25516 ****       131.2500 128.0000 167.5000 Du        
  25517 ****       131.2500 128.2500 166.0000 Du        
  25518 ****       131.2500 128.2500 166.2500 Du        
  25519 ****       131.2500 128.2500 166.5000 Du        
  25520 ****       131.2500 128.2500 166.7500 Du        
  25521 ****       131.2500 128.2500 167.0000 Du        
  25522 ****       131.2500 128.2500 167.2500 Du        
  25523 ****       131.2500 128.5000 166.2500 Du        
  25524 ****       131.2500 128.5000 166.5000 Du        
  25525 ****       131.2500 128.5000 166.7500 Du        
  25526 ****       131.2500 128.5000 167.0000 Du        
  25527 ****       131.2500 128.5000 167.2500 Du        
  25528 ****       131.2500 128.7500 166.5000 Du        
  25529 ****       131.2500 128.7500 166.7500 Du        
  25530 ****       131.2500 128.7500 167.0000 Du        
  25531 ****       131.2500 128.7500 167.2500 Du        
  25532 ****       131.2500 128.7500 167.5000 Du        
  25533 ****       131.2500 129.0000 166.7500 Du        
  25534 ****       131.2500 129.0000 167.0000 Du        
  25535 ****       131.2500 129.0000 167.2500 Du        
  25536 ****       131.2500 129.0000 167.5000 Du        
  25537 ****       131.2500 129.2500 167.0000 Du        
  25538 ****       131.2500 129.2500 167.2500 Du        
  25539 ****       131.2500 129.2500 167.5000 Du        
  25540 ****       131.2500 129.2500 167.7500 Du        
  25541 ****       131.2500 129.5000 167.0000 Du        
  25542 ****       131.2500 129.5000 167.2500 Du        
  25543 ****       131.2500 129.5000 167.5000 Du        
  25544 ****       131.2500 129.5000 167.7500 Du        
  25545 ****       131.2500 129.7500 154.7500 Du        
  25546 ****       131.2500 129.7500 155.0000 Du        
  25547 ****       131.2500 129.7500 167.0000 Du        
  25548 ****       131.2500 129.7500 167.2500 Du        
  25549 ****       131.2500 129.7500 167.5000 Du        
  25550 ****       131.2500 129.7500 167.7500 Du        
  25551 ****       131.2500 129.7500 168.0000 Du        
  25552 ****       131.2500 130.0000 154.5000 Du        
  25553 ****       131.2500 130.0000 154.7500 Du        
  25554 ****       131.2500 130.0000 155.0000 Du        
  25555 ****       131.2500 130.0000 167.0000 Du        
  25556 ****       131.2500 130.0000 167.2500 Du        
  25557 ****       131.2500 130.0000 167.5000 Du        
  25558 ****       131.2500 130.0000 167.7500 Du        
  25559 ****       131.2500 130.0000 168.0000 Du        
  25560 ****       131.2500 130.2500 154.5000 Du        
  25561 ****       131.2500 130.2500 154.7500 Du        
  25562 ****       131.2500 130.2500 155.0000 Du        
  25563 ****       131.2500 130.2500 155.2500 Du        
  25564 ****       131.2500 130.2500 167.0000 Du        
  25565 ****       131.2500 130.2500 167.2500 Du        
  25566 ****       131.2500 130.2500 167.5000 Du        
  25567 ****       131.2500 130.2500 167.7500 Du        
  25568 ****       131.2500 130.2500 168.0000 Du        
  25569 ****       131.2500 130.2500 168.2500 Du        
  25570 ****       131.2500 130.5000 155.0000 Du        
  25571 ****       131.2500 130.5000 167.0000 Du        
  25572 ****       131.2500 130.5000 167.2500 Du        
  25573 ****       131.2500 130.5000 167.5000 Du        
  25574 ****       131.2500 130.5000 167.7500 Du        
  25575 ****       131.2500 130.5000 168.0000 Du        
  25576 ****       131.2500 130.5000 168.2500 Du        
  25577 ****       131.2500 130.5000 168.5000 Du        
  25578 ****       131.2500 130.7500 155.0000 Du        
  25579 ****       131.2500 130.7500 167.0000 Du        
  25580 ****       131.2500 130.7500 167.2500 Du        
  25581 ****       131.2500 130.7500 167.5000 Du        
  25582 ****       131.2500 130.7500 167.7500 Du        
  25583 ****       131.2500 130.7500 168.0000 Du        
  25584 ****       131.2500 130.7500 168.2500 Du        
  25585 ****       131.2500 130.7500 168.5000 Du        
  25586 ****       131.2500 130.7500 168.7500 Du        
  25587 ****       131.2500 131.0000 167.0000 Du        
  25588 ****       131.2500 131.0000 167.2500 Du        
  25589 ****       131.2500 131.0000 167.5000 Du        
  25590 ****       131.2500 131.0000 167.7500 Du        
  25591 ****       131.2500 131.0000 168.0000 Du        
  25592 ****       131.2500 131.0000 168.2500 Du        
  25593 ****       131.2500 131.0000 168.5000 Du        
  25594 ****       131.2500 131.0000 168.7500 Du        
  25595 ****       131.2500 131.0000 169.0000 Du        
  25596 ****       131.2500 131.2500 167.0000 Du        
  25597 ****       131.2500 131.2500 167.2500 Du        
  25598 ****       131.2500 131.2500 167.5000 Du        
  25599 ****       131.2500 131.2500 167.7500 Du        
  25600 ****       131.2500 131.2500 168.0000 Du        
  25601 ****       131.2500 131.2500 168.2500 Du        
  25602 ****       131.2500 131.2500 168.5000 Du        
  25603 ****       131.2500 131.2500 168.7500 Du        
  25604 ****       131.2500 131.2500 169.0000 Du        
  25605 ****       131.2500 131.2500 169.2500 Du        
  25606 ****       131.2500 131.5000 167.0000 Du        
  25607 ****       131.2500 131.5000 167.2500 Du        
  25608 ****       131.2500 131.5000 167.5000 Du        
  25609 ****       131.2500 131.5000 167.7500 Du        
  25610 ****       131.2500 131.5000 168.0000 Du        
  25611 ****       131.2500 131.5000 168.2500 Du        
  25612 ****       131.2500 131.5000 168.5000 Du        
  25613 ****       131.2500 131.5000 168.7500 Du        
  25614 ****       131.2500 131.5000 169.0000 Du        
  25615 ****       131.2500 131.5000 169.2500 Du        
  25616 ****       131.2500 131.7500 167.0000 Du        
  25617 ****       131.2500 131.7500 167.2500 Du        
  25618 ****       131.2500 131.7500 167.5000 Du        
  25619 ****       131.2500 131.7500 167.7500 Du        
  25620 ****       131.2500 131.7500 168.0000 Du        
  25621 ****       131.2500 131.7500 168.2500 Du        
  25622 ****       131.2500 131.7500 168.5000 Du        
  25623 ****       131.2500 131.7500 168.7500 Du        
  25624 ****       131.2500 131.7500 169.0000 Du        
  25625 ****       131.2500 131.7500 169.2500 Du        
  25626 ****       131.2500 132.0000 137.7500 Du        
  25627 ****       131.2500 132.0000 138.0000 Du        
  25628 ****       131.2500 132.0000 138.2500 Du        
  25629 ****       131.2500 132.0000 138.5000 Du        
  25630 ****       131.2500 132.2500 137.5000 Du        
  25631 ****       131.2500 132.2500 137.7500 Du        
  25632 ****       131.2500 132.2500 138.0000 Du        
  25633 ****       131.2500 132.2500 138.2500 Du        
  25634 ****       131.2500 132.2500 138.5000 Du        
  25635 ****       131.2500 132.2500 138.7500 Du        
  25636 ****       131.2500 132.5000 137.7500 Du        
  25637 ****       131.2500 132.5000 138.0000 Du        
  25638 ****       131.2500 132.5000 138.2500 Du        
  25639 ****       131.2500 132.5000 138.5000 Du        
  25640 ****       131.2500 132.5000 138.7500 Du        
  25641 ****       131.2500 132.5000 139.0000 Du        
  25642 ****       131.2500 132.7500 138.0000 Du        
  25643 ****       131.2500 132.7500 138.2500 Du        
  25644 ****       131.2500 132.7500 138.5000 Du        
  25645 ****       131.2500 132.7500 138.7500 Du        
  25646 ****       131.2500 132.7500 139.0000 Du        
  25647 ****       131.2500 132.7500 139.2500 Du        
  25648 ****       131.2500 133.0000 138.0000 Du        
  25649 ****       131.2500 133.0000 138.2500 Du        
  25650 ****       131.2500 133.0000 138.5000 Du        
  25651 ****       131.2500 133.0000 138.7500 Du        
  25652 ****       131.2500 133.0000 139.0000 Du        
  25653 ****       131.2500 133.0000 139.2500 Du        
  25654 ****       131.2500 133.0000 139.5000 Du        
  25655 ****       131.2500 133.0000 139.7500 Du        
  25656 ****       131.2500 133.0000 155.0000 Du        
  25657 ****       131.2500 133.0000 155.2500 Du        
  25658 ****       131.2500 133.0000 155.5000 Du        
  25659 ****       131.2500 133.0000 155.7500 Du        
  25660 ****       131.2500 133.2500 138.2500 Du        
  25661 ****       131.2500 133.2500 138.5000 Du        
  25662 ****       131.2500 133.2500 138.7500 Du        
  25663 ****       131.2500 133.2500 139.0000 Du        
  25664 ****       131.2500 133.2500 139.2500 Du        
  25665 ****       131.2500 133.2500 139.5000 Du        
  25666 ****       131.2500 133.2500 139.7500 Du        
  25667 ****       131.2500 133.2500 140.0000 Du        
  25668 ****       131.2500 133.2500 140.2500 Du        
  25669 ****       131.2500 133.2500 140.5000 Du        
  25670 ****       131.2500 133.2500 154.7500 Du        
  25671 ****       131.2500 133.2500 155.0000 Du        
  25672 ****       131.2500 133.2500 155.2500 Du        
  25673 ****       131.2500 133.2500 155.5000 Du        
  25674 ****       131.2500 133.2500 155.7500 Du        
  25675 ****       131.2500 133.5000 138.5000 Du        
  25676 ****       131.2500 133.5000 138.7500 Du        
  25677 ****       131.2500 133.5000 139.0000 Du        
  25678 ****       131.2500 133.5000 139.2500 Du        
  25679 ****       131.2500 133.5000 139.5000 Du        
  25680 ****       131.2500 133.5000 139.7500 Du        
  25681 ****       131.2500 133.5000 140.0000 Du        
  25682 ****       131.2500 133.5000 140.2500 Du        
  25683 ****       131.2500 133.5000 140.5000 Du        
  25684 ****       131.2500 133.5000 140.7500 Du        
  25685 ****       131.2500 133.5000 141.0000 Du        
  25686 ****       131.2500 133.5000 141.2500 Du        
  25687 ****       131.2500 133.5000 154.5000 Du        
  25688 ****       131.2500 133.5000 154.7500 Du        
  25689 ****       131.2500 133.5000 155.0000 Du        
  25690 ****       131.2500 133.5000 155.2500 Du        
  25691 ****       131.2500 133.5000 155.5000 Du        
  25692 ****       131.2500 133.5000 155.7500 Du        
  25693 ****       131.2500 133.5000 156.0000 Du        
  25694 ****       131.2500 133.7500 138.7500 Du        
  25695 ****       131.2500 133.7500 139.0000 Du        
  25696 ****       131.2500 133.7500 139.2500 Du        
  25697 ****       131.2500 133.7500 139.5000 Du        
  25698 ****       131.2500 133.7500 139.7500 Du        
  25699 ****       131.2500 133.7500 140.0000 Du        
  25700 ****       131.2500 133.7500 140.2500 Du        
  25701 ****       131.2500 133.7500 140.5000 Du        
  25702 ****       131.2500 133.7500 140.7500 Du        
  25703 ****       131.2500 133.7500 141.0000 Du        
  25704 ****       131.2500 133.7500 141.2500 Du        
  25705 ****       131.2500 133.7500 154.5000 Du        
  25706 ****       131.2500 133.7500 154.7500 Du        
  25707 ****       131.2500 133.7500 155.0000 Du        
  25708 ****       131.2500 133.7500 155.2500 Du        
  25709 ****       131.2500 133.7500 155.5000 Du        
  25710 ****       131.2500 133.7500 155.7500 Du        
  25711 ****       131.2500 133.7500 156.0000 Du        
  25712 ****       131.2500 133.7500 156.2500 Du        
  25713 ****       131.2500 134.0000 139.2500 Du        
  25714 ****       131.2500 134.0000 139.5000 Du        
  25715 ****       131.2500 134.0000 139.7500 Du        
  25716 ****       131.2500 134.0000 140.0000 Du        
  25717 ****       131.2500 134.0000 140.2500 Du        
  25718 ****       131.2500 134.0000 140.5000 Du        
  25719 ****       131.2500 134.0000 140.7500 Du        
  25720 ****       131.2500 134.0000 141.0000 Du        
  25721 ****       131.2500 134.0000 141.2500 Du        
  25722 ****       131.2500 134.0000 154.7500 Du        
  25723 ****       131.2500 134.0000 155.0000 Du        
  25724 ****       131.2500 134.0000 155.2500 Du        
  25725 ****       131.2500 134.0000 155.5000 Du        
  25726 ****       131.2500 134.0000 155.7500 Du        
  25727 ****       131.2500 134.0000 156.0000 Du        
  25728 ****       131.2500 134.0000 156.2500 Du        
  25729 ****       131.2500 134.0000 156.5000 Du        
  25730 ****       131.2500 134.2500 140.2500 Du        
  25731 ****       131.2500 134.2500 140.5000 Du        
  25732 ****       131.2500 134.2500 140.7500 Du        
  25733 ****       131.2500 134.2500 141.0000 Du        
  25734 ****       131.2500 134.2500 141.2500 Du        
  25735 ****       131.2500 134.2500 155.2500 Du        
  25736 ****       131.2500 134.2500 155.5000 Du        
  25737 ****       131.2500 134.2500 155.7500 Du        
  25738 ****       131.2500 134.2500 156.0000 Du        
  25739 ****       131.2500 134.2500 156.2500 Du        
  25740 ****       131.2500 134.2500 156.5000 Du        
  25741 ****       131.2500 134.2500 156.7500 Du        
  25742 ****       131.2500 134.5000 155.5000 Du        
  25743 ****       131.2500 134.5000 155.7500 Du        
  25744 ****       131.2500 134.5000 156.0000 Du        
  25745 ****       131.2500 134.5000 156.2500 Du        
  25746 ****       131.2500 134.5000 156.5000 Du        
  25747 ****       131.2500 134.5000 156.7500 Du        
  25748 ****       131.2500 134.7500 156.0000 Du        
  25749 ****       131.2500 134.7500 156.2500 Du        
  25750 ****       131.2500 134.7500 156.5000 Du        
  25751 ****       131.2500 135.2500 165.0000 Du        
  25752 ****       131.2500 135.2500 165.2500 Du        
  25753 ****       131.2500 135.5000 165.0000 Du        
  25754 ****       131.2500 135.5000 165.2500 Du        
  25755 ****       131.2500 135.5000 165.5000 Du        
  25756 ****       131.2500 137.2500  96.0000 Du        
  25757 ****       131.2500 137.2500  96.2500 Du        
  25758 ****       131.2500 137.2500  96.5000 Du        
  25759 ****       131.2500 137.2500  96.7500 Du        
  25760 ****       131.2500 137.5000  96.0000 Du        
  25761 ****       131.2500 137.5000  96.2500 Du        
  25762 ****       131.2500 137.5000  96.5000 Du        
  25763 ****       131.2500 137.5000  96.7500 Du        
  25764 ****       131.2500 137.7500  95.7500 Du        
  25765 ****       131.2500 137.7500  96.0000 Du        
  25766 ****       131.2500 137.7500  96.2500 Du        
  25767 ****       131.2500 137.7500  96.5000 Du        
  25768 ****       131.2500 137.7500  96.7500 Du        
  25769 ****       131.2500 137.7500  97.0000 Du        
  25770 ****       131.2500 138.0000  95.7500 Du        
  25771 ****       131.2500 138.0000  96.0000 Du        
  25772 ****       131.2500 138.0000  96.2500 Du        
  25773 ****       131.2500 138.0000  96.5000 Du        
  25774 ****       131.2500 138.0000  96.7500 Du        
  25775 ****       131.2500 138.0000  97.0000 Du        
  25776 ****       131.2500 138.2500  96.0000 Du        
  25777 ****       131.2500 138.2500  96.2500 Du        
  25778 ****       131.2500 138.2500  96.5000 Du        
  25779 ****       131.2500 138.2500  96.7500 Du        
  25780 ****       131.2500 138.2500  97.0000 Du        
  25781 ****       131.2500 139.2500 104.2500 Du        
  25782 ****       131.2500 139.2500 104.5000 Du        
  25783 ****       131.2500 139.2500 104.7500 Du        
  25784 ****       131.2500 139.2500 105.0000 Du        
  25785 ****       131.2500 139.5000 104.0000 Du        
  25786 ****       131.2500 139.5000 104.2500 Du        
  25787 ****       131.2500 139.5000 104.5000 Du        
  25788 ****       131.2500 139.5000 104.7500 Du        
  25789 ****       131.2500 139.5000 105.0000 Du        
  25790 ****       131.2500 139.5000 105.2500 Du        
  25791 ****       131.2500 139.5000 105.5000 Du        
  25792 ****       131.2500 139.5000 105.7500 Du        
  25793 ****       131.2500 139.5000 106.0000 Du        
  25794 ****       131.2500 139.5000 106.2500 Du        
  25795 ****       131.2500 139.7500 103.7500 Du        
  25796 ****       131.2500 139.7500 104.0000 Du        
  25797 ****       131.2500 139.7500 104.2500 Du        
  25798 ****       131.2500 139.7500 104.5000 Du        
  25799 ****       131.2500 139.7500 104.7500 Du        
  25800 ****       131.2500 139.7500 105.0000 Du        
  25801 ****       131.2500 139.7500 105.2500 Du        
  25802 ****       131.2500 139.7500 105.5000 Du        
  25803 ****       131.2500 139.7500 105.7500 Du        
  25804 ****       131.2500 139.7500 106.0000 Du        
  25805 ****       131.2500 139.7500 106.2500 Du        
  25806 ****       131.2500 140.0000 103.5000 Du        
  25807 ****       131.2500 140.0000 103.7500 Du        
  25808 ****       131.2500 140.0000 104.0000 Du        
  25809 ****       131.2500 140.0000 104.2500 Du        
  25810 ****       131.2500 140.0000 104.5000 Du        
  25811 ****       131.2500 140.0000 104.7500 Du        
  25812 ****       131.2500 140.0000 105.0000 Du        
  25813 ****       131.2500 140.0000 105.2500 Du        
  25814 ****       131.2500 140.0000 105.5000 Du        
  25815 ****       131.2500 140.0000 105.7500 Du        
  25816 ****       131.2500 140.0000 106.0000 Du        
  25817 ****       131.2500 140.0000 106.2500 Du        
  25818 ****       131.2500 140.2500 103.2500 Du        
  25819 ****       131.2500 140.2500 103.5000 Du        
  25820 ****       131.2500 140.2500 103.7500 Du        
  25821 ****       131.2500 140.2500 104.0000 Du        
  25822 ****       131.2500 140.2500 104.2500 Du        
  25823 ****       131.2500 140.2500 104.5000 Du        
  25824 ****       131.2500 140.2500 104.7500 Du        
  25825 ****       131.2500 140.2500 105.0000 Du        
  25826 ****       131.2500 140.2500 105.2500 Du        
  25827 ****       131.2500 140.2500 105.5000 Du        
  25828 ****       131.2500 140.2500 105.7500 Du        
  25829 ****       131.2500 140.5000 103.0000 Du        
  25830 ****       131.2500 140.5000 103.2500 Du        
  25831 ****       131.2500 140.5000 103.5000 Du        
  25832 ****       131.2500 140.5000 103.7500 Du        
  25833 ****       131.2500 140.5000 104.0000 Du        
  25834 ****       131.2500 140.5000 104.2500 Du        
  25835 ****       131.2500 140.5000 104.5000 Du        
  25836 ****       131.2500 140.5000 104.7500 Du        
  25837 ****       131.2500 140.5000 105.0000 Du        
  25838 ****       131.2500 140.5000 105.2500 Du        
  25839 ****       131.2500 140.5000 105.5000 Du        
  25840 ****       131.2500 140.7500 102.7500 Du        
  25841 ****       131.2500 140.7500 103.0000 Du        
  25842 ****       131.2500 140.7500 103.2500 Du        
  25843 ****       131.2500 140.7500 103.5000 Du        
  25844 ****       131.2500 140.7500 103.7500 Du        
  25845 ****       131.2500 140.7500 104.0000 Du        
  25846 ****       131.2500 140.7500 104.2500 Du        
  25847 ****       131.2500 140.7500 104.5000 Du        
  25848 ****       131.2500 140.7500 104.7500 Du        
  25849 ****       131.2500 140.7500 105.0000 Du        
  25850 ****       131.2500 141.0000 102.5000 Du        
  25851 ****       131.2500 141.0000 102.7500 Du        
  25852 ****       131.2500 141.0000 103.0000 Du        
  25853 ****       131.2500 141.0000 103.2500 Du        
  25854 ****       131.2500 141.0000 103.5000 Du        
  25855 ****       131.2500 141.0000 103.7500 Du        
  25856 ****       131.2500 141.0000 104.0000 Du        
  25857 ****       131.2500 141.0000 104.2500 Du        
  25858 ****       131.2500 141.0000 104.5000 Du        
  25859 ****       131.2500 141.0000 104.7500 Du        
  25860 ****       131.2500 141.2500 102.5000 Du        
  25861 ****       131.2500 141.2500 102.7500 Du        
  25862 ****       131.2500 141.2500 103.0000 Du        
  25863 ****       131.2500 141.2500 103.2500 Du        
  25864 ****       131.2500 141.2500 103.5000 Du        
  25865 ****       131.2500 141.2500 103.7500 Du        
  25866 ****       131.2500 141.2500 104.0000 Du        
  25867 ****       131.2500 141.2500 104.2500 Du        
  25868 ****       131.2500 141.5000 103.0000 Du        
  25869 ****       131.2500 141.5000 103.2500 Du        
  25870 ****       131.2500 141.5000 103.5000 Du        
  25871 ****       131.2500 141.5000 103.7500 Du        
  25872 ****       131.2500 141.5000 104.0000 Du        
  25873 ****       131.2500 141.7500 103.0000 Du        
  25874 ****       131.2500 141.7500 103.5000 Du        
  25875 ****       131.2500 142.0000 103.0000 Du        
  25876 ****       131.2500 142.2500 103.0000 Du        
  25877 ****       131.2500 142.5000 102.7500 Du        
  25878 ****       131.2500 142.5000 103.0000 Du        
  25879 ****       131.2500 142.7500  98.7500 Du        
  25880 ****       131.2500 142.7500  99.0000 Du        
  25881 ****       131.2500 142.7500  99.2500 Du        
  25882 ****       131.2500 143.0000  98.7500 Du        
  25883 ****       131.2500 143.0000  99.0000 Du        
  25884 ****       131.2500 143.0000  99.2500 Du        
  25885 ****       131.2500 143.0000  99.5000 Du        
  25886 ****       131.2500 143.0000  99.7500 Du        
  25887 ****       131.2500 143.2500  98.5000 Du        
  25888 ****       131.2500 143.2500  98.7500 Du        
  25889 ****       131.2500 143.2500  99.0000 Du        
  25890 ****       131.2500 143.2500  99.2500 Du        
  25891 ****       131.2500 143.2500  99.5000 Du        
  25892 ****       131.2500 143.2500  99.7500 Du        
  25893 ****       131.2500 143.5000  98.5000 Du        
  25894 ****       131.2500 143.5000  98.7500 Du        
  25895 ****       131.2500 143.5000  99.0000 Du        
  25896 ****       131.2500 143.5000  99.2500 Du        
  25897 ****       131.2500 143.5000  99.5000 Du        
  25898 ****       131.2500 143.7500  98.7500 Du        
  25899 ****       131.2500 143.7500  99.0000 Du        
  25900 ****       131.2500 143.7500  99.2500 Du        
  25901 ****       131.2500 143.7500  99.5000 Du        
  25902 ****       131.2500 143.7500 146.7500 Du        
  25903 ****       131.2500 143.7500 147.0000 Du        
  25904 ****       131.2500 143.7500 147.2500 Du        
  25905 ****       131.2500 144.0000  99.0000 Du        
  25906 ****       131.2500 144.0000  99.2500 Du        
  25907 ****       131.2500 144.0000 146.5000 Du        
  25908 ****       131.2500 144.0000 146.7500 Du        
  25909 ****       131.2500 144.0000 147.0000 Du        
  25910 ****       131.2500 144.0000 147.2500 Du        
  25911 ****       131.2500 144.0000 147.5000 Du        
  25912 ****       131.2500 144.2500 146.5000 Du        
  25913 ****       131.2500 144.2500 146.7500 Du        
  25914 ****       131.2500 144.2500 147.0000 Du        
  25915 ****       131.2500 144.2500 147.2500 Du        
  25916 ****       131.2500 144.2500 147.5000 Du        
  25917 ****       131.2500 144.5000 146.5000 Du        
  25918 ****       131.2500 144.5000 146.7500 Du        
  25919 ****       131.2500 144.5000 147.0000 Du        
  25920 ****       131.2500 144.5000 147.2500 Du        
  25921 ****       131.2500 144.5000 147.5000 Du        
  25922 ****       131.2500 144.5000 147.7500 Du        
  25923 ****       131.2500 144.7500 146.5000 Du        
  25924 ****       131.2500 144.7500 146.7500 Du        
  25925 ****       131.2500 144.7500 147.0000 Du        
  25926 ****       131.2500 144.7500 147.2500 Du        
  25927 ****       131.2500 144.7500 147.5000 Du        
  25928 ****       131.5000 121.0000 143.2500 Du        
  25929 ****       131.5000 121.0000 143.5000 Du        
  25930 ****       131.5000 121.0000 143.7500 Du        
  25931 ****       131.5000 121.0000 144.0000 Du        
  25932 ****       131.5000 121.0000 144.2500 Du        
  25933 ****       131.5000 121.0000 144.5000 Du        
  25934 ****       131.5000 121.0000 144.7500 Du        
  25935 ****       131.5000 121.0000 145.0000 Du        
  25936 ****       131.5000 121.0000 145.2500 Du        
  25937 ****       131.5000 121.2500 143.0000 Du        
  25938 ****       131.5000 121.2500 143.2500 Du        
  25939 ****       131.5000 121.2500 143.5000 Du        
  25940 ****       131.5000 121.2500 143.7500 Du        
  25941 ****       131.5000 121.2500 144.0000 Du        
  25942 ****       131.5000 121.2500 144.2500 Du        
  25943 ****       131.5000 121.2500 144.5000 Du        
  25944 ****       131.5000 121.2500 144.7500 Du        
  25945 ****       131.5000 121.2500 145.0000 Du        
  25946 ****       131.5000 121.2500 145.2500 Du        
  25947 ****       131.5000 121.5000 142.5000 Du        
  25948 ****       131.5000 121.5000 142.7500 Du        
  25949 ****       131.5000 121.5000 143.0000 Du        
  25950 ****       131.5000 121.5000 143.2500 Du        
  25951 ****       131.5000 121.5000 143.5000 Du        
  25952 ****       131.5000 121.5000 143.7500 Du        
  25953 ****       131.5000 121.5000 144.0000 Du        
  25954 ****       131.5000 121.5000 144.2500 Du        
  25955 ****       131.5000 121.5000 144.5000 Du        
  25956 ****       131.5000 121.5000 144.7500 Du        
  25957 ****       131.5000 121.5000 145.0000 Du        
  25958 ****       131.5000 121.7500 142.5000 Du        
  25959 ****       131.5000 121.7500 142.7500 Du        
  25960 ****       131.5000 121.7500 143.0000 Du        
  25961 ****       131.5000 121.7500 143.2500 Du        
  25962 ****       131.5000 121.7500 143.5000 Du        
  25963 ****       131.5000 121.7500 143.7500 Du        
  25964 ****       131.5000 121.7500 144.0000 Du        
  25965 ****       131.5000 121.7500 144.2500 Du        
  25966 ****       131.5000 121.7500 144.5000 Du        
  25967 ****       131.5000 121.7500 144.7500 Du        
  25968 ****       131.5000 121.7500 145.0000 Du        
  25969 ****       131.5000 122.0000 142.7500 Du        
  25970 ****       131.5000 122.0000 143.0000 Du        
  25971 ****       131.5000 122.0000 143.2500 Du        
  25972 ****       131.5000 122.0000 143.5000 Du        
  25973 ****       131.5000 122.0000 143.7500 Du        
  25974 ****       131.5000 122.0000 144.0000 Du        
  25975 ****       131.5000 122.0000 144.2500 Du        
  25976 ****       131.5000 122.0000 144.5000 Du        
  25977 ****       131.5000 122.0000 144.7500 Du        
  25978 ****       131.5000 122.0000 145.0000 Du        
  25979 ****       131.5000 122.2500 142.7500 Du        
  25980 ****       131.5000 122.2500 143.0000 Du        
  25981 ****       131.5000 122.2500 143.2500 Du        
  25982 ****       131.5000 122.2500 143.5000 Du        
  25983 ****       131.5000 122.2500 143.7500 Du        
  25984 ****       131.5000 122.2500 144.0000 Du        
  25985 ****       131.5000 122.2500 144.2500 Du        
  25986 ****       131.5000 122.2500 144.5000 Du        
  25987 ****       131.5000 122.2500 144.7500 Du        
  25988 ****       131.5000 122.2500 145.0000 Du        
  25989 ****       131.5000 122.2500 145.2500 Du        
  25990 ****       131.5000 122.5000 143.0000 Du        
  25991 ****       131.5000 122.5000 143.2500 Du        
  25992 ****       131.5000 122.5000 143.5000 Du        
  25993 ****       131.5000 122.5000 143.7500 Du        
  25994 ****       131.5000 122.5000 144.0000 Du        
  25995 ****       131.5000 122.5000 144.2500 Du        
  25996 ****       131.5000 122.5000 144.5000 Du        
  25997 ****       131.5000 122.5000 144.7500 Du        
  25998 ****       131.5000 122.5000 145.0000 Du        
  25999 ****       131.5000 122.7500 143.2500 Du        
  26000 ****       131.5000 122.7500 143.5000 Du        
  26001 ****       131.5000 122.7500 143.7500 Du        
  26002 ****       131.5000 122.7500 144.0000 Du        
  26003 ****       131.5000 122.7500 144.2500 Du        
  26004 ****       131.5000 122.7500 144.5000 Du        
  26005 ****       131.5000 122.7500 144.7500 Du        
  26006 ****       131.5000 122.7500 145.0000 Du        
  26007 ****       131.5000 122.7500 145.2500 Du        
  26008 ****       131.5000 123.0000 143.5000 Du        
  26009 ****       131.5000 123.0000 143.7500 Du        
  26010 ****       131.5000 123.0000 144.0000 Du        
  26011 ****       131.5000 123.0000 144.2500 Du        
  26012 ****       131.5000 123.0000 144.5000 Du        
  26013 ****       131.5000 123.0000 144.7500 Du        
  26014 ****       131.5000 123.0000 145.0000 Du        
  26015 ****       131.5000 123.0000 145.2500 Du        
  26016 ****       131.5000 123.2500 143.7500 Du        
  26017 ****       131.5000 123.2500 144.0000 Du        
  26018 ****       131.5000 123.2500 144.2500 Du        
  26019 ****       131.5000 123.2500 144.5000 Du        
  26020 ****       131.5000 123.2500 144.7500 Du        
  26021 ****       131.5000 123.2500 145.0000 Du        
  26022 ****       131.5000 123.2500 145.2500 Du        
  26023 ****       131.5000 123.5000 144.0000 Du        
  26024 ****       131.5000 123.5000 144.2500 Du        
  26025 ****       131.5000 123.5000 144.5000 Du        
  26026 ****       131.5000 123.5000 144.7500 Du        
  26027 ****       131.5000 123.5000 145.0000 Du        
  26028 ****       131.5000 123.5000 145.2500 Du        
  26029 ****       131.5000 123.7500 144.0000 Du        
  26030 ****       131.5000 123.7500 144.2500 Du        
  26031 ****       131.5000 123.7500 144.5000 Du        
  26032 ****       131.5000 123.7500 144.7500 Du        
  26033 ****       131.5000 123.7500 145.0000 Du        
  26034 ****       131.5000 123.7500 145.2500 Du        
  26035 ****       131.5000 123.7500 145.5000 Du        
  26036 ****       131.5000 124.0000 144.2500 Du        
  26037 ****       131.5000 124.0000 144.5000 Du        
  26038 ****       131.5000 124.0000 144.7500 Du        
  26039 ****       131.5000 124.0000 145.0000 Du        
  26040 ****       131.5000 124.0000 145.2500 Du        
  26041 ****       131.5000 124.0000 145.5000 Du        
  26042 ****       131.5000 124.0000 145.7500 Du        
  26043 ****       131.5000 124.2500 144.5000 Du        
  26044 ****       131.5000 124.2500 144.7500 Du        
  26045 ****       131.5000 124.2500 145.0000 Du        
  26046 ****       131.5000 124.2500 145.2500 Du        
  26047 ****       131.5000 124.2500 145.5000 Du        
  26048 ****       131.5000 124.5000 144.7500 Du        
  26049 ****       131.5000 124.5000 145.0000 Du        
  26050 ****       131.5000 124.5000 145.2500 Du        
  26051 ****       131.5000 124.5000 145.7500 Du        
  26052 ****       131.5000 124.5000 146.0000 Du        
  26053 ****       131.5000 124.7500 144.7500 Du        
  26054 ****       131.5000 124.7500 145.0000 Du        
  26055 ****       131.5000 124.7500 145.2500 Du        
  26056 ****       131.5000 124.7500 145.7500 Du        
  26057 ****       131.5000 124.7500 146.0000 Du        
  26058 ****       131.5000 124.7500 146.2500 Du        
  26059 ****       131.5000 124.7500 146.5000 Du        
  26060 ****       131.5000 125.0000 145.0000 Du        
  26061 ****       131.5000 125.0000 145.2500 Du        
  26062 ****       131.5000 125.0000 145.7500 Du        
  26063 ****       131.5000 125.0000 146.0000 Du        
  26064 ****       131.5000 125.0000 146.2500 Du        
  26065 ****       131.5000 125.0000 146.5000 Du        
  26066 ****       131.5000 125.0000 146.7500 Du        
  26067 ****       131.5000 125.2500 145.0000 Du        
  26068 ****       131.5000 125.2500 146.2500 Du        
  26069 ****       131.5000 125.2500 146.5000 Du        
  26070 ****       131.5000 126.2500 165.5000 Du        
  26071 ****       131.5000 126.2500 165.7500 Du        
  26072 ****       131.5000 126.2500 166.0000 Du        
  26073 ****       131.5000 126.2500 166.2500 Du        
  26074 ****       131.5000 126.2500 166.5000 Du        
  26075 ****       131.5000 126.2500 166.7500 Du        
  26076 ****       131.5000 126.2500 167.0000 Du        
  26077 ****       131.5000 126.2500 167.5000 Du        
  26078 ****       131.5000 126.5000 165.5000 Du        
  26079 ****       131.5000 126.5000 165.7500 Du        
  26080 ****       131.5000 126.5000 166.0000 Du        
  26081 ****       131.5000 126.5000 166.2500 Du        
  26082 ****       131.5000 126.5000 166.5000 Du        
  26083 ****       131.5000 126.5000 166.7500 Du        
  26084 ****       131.5000 126.5000 167.0000 Du        
  26085 ****       131.5000 126.5000 167.2500 Du        
  26086 ****       131.5000 126.5000 167.5000 Du        
  26087 ****       131.5000 126.5000 167.7500 Du        
  26088 ****       131.5000 126.5000 168.0000 Du        
  26089 ****       131.5000 126.7500 165.5000 Du        
  26090 ****       131.5000 126.7500 165.7500 Du        
  26091 ****       131.5000 126.7500 166.0000 Du        
  26092 ****       131.5000 126.7500 166.2500 Du        
  26093 ****       131.5000 126.7500 166.5000 Du        
  26094 ****       131.5000 126.7500 166.7500 Du        
  26095 ****       131.5000 126.7500 167.0000 Du        
  26096 ****       131.5000 126.7500 167.2500 Du        
  26097 ****       131.5000 126.7500 167.5000 Du        
  26098 ****       131.5000 126.7500 167.7500 Du        
  26099 ****       131.5000 126.7500 168.0000 Du        
  26100 ****       131.5000 127.0000 165.5000 Du        
  26101 ****       131.5000 127.0000 165.7500 Du        
  26102 ****       131.5000 127.0000 166.0000 Du        
  26103 ****       131.5000 127.0000 166.2500 Du        
  26104 ****       131.5000 127.0000 166.5000 Du        
  26105 ****       131.5000 127.0000 166.7500 Du        
  26106 ****       131.5000 127.0000 167.0000 Du        
  26107 ****       131.5000 127.0000 167.2500 Du        
  26108 ****       131.5000 127.0000 167.5000 Du        
  26109 ****       131.5000 127.0000 167.7500 Du        
  26110 ****       131.5000 127.2500 165.2500 Du        
  26111 ****       131.5000 127.2500 165.5000 Du        
  26112 ****       131.5000 127.2500 165.7500 Du        
  26113 ****       131.5000 127.2500 166.0000 Du        
  26114 ****       131.5000 127.2500 166.2500 Du        
  26115 ****       131.5000 127.2500 166.5000 Du        
  26116 ****       131.5000 127.2500 166.7500 Du        
  26117 ****       131.5000 127.2500 167.0000 Du        
  26118 ****       131.5000 127.2500 167.2500 Du        
  26119 ****       131.5000 127.2500 167.5000 Du        
  26120 ****       131.5000 127.5000 165.2500 Du        
  26121 ****       131.5000 127.5000 165.5000 Du        
  26122 ****       131.5000 127.5000 165.7500 Du        
  26123 ****       131.5000 127.5000 166.0000 Du        
  26124 ****       131.5000 127.5000 166.2500 Du        
  26125 ****       131.5000 127.5000 166.5000 Du        
  26126 ****       131.5000 127.5000 166.7500 Du        
  26127 ****       131.5000 127.5000 167.0000 Du        
  26128 ****       131.5000 127.5000 167.2500 Du        
  26129 ****       131.5000 127.7500 144.0000 Du        
  26130 ****       131.5000 127.7500 165.2500 Du        
  26131 ****       131.5000 127.7500 165.5000 Du        
  26132 ****       131.5000 127.7500 165.7500 Du        
  26133 ****       131.5000 127.7500 166.0000 Du        
  26134 ****       131.5000 127.7500 166.2500 Du        
  26135 ****       131.5000 127.7500 166.5000 Du        
  26136 ****       131.5000 127.7500 166.7500 Du        
  26137 ****       131.5000 127.7500 167.0000 Du        
  26138 ****       131.5000 128.0000 143.7500 Du        
  26139 ****       131.5000 128.0000 144.0000 Du        
  26140 ****       131.5000 128.0000 165.2500 Du        
  26141 ****       131.5000 128.0000 165.5000 Du        
  26142 ****       131.5000 128.0000 165.7500 Du        
  26143 ****       131.5000 128.0000 166.0000 Du        
  26144 ****       131.5000 128.0000 166.2500 Du        
  26145 ****       131.5000 128.0000 166.5000 Du        
  26146 ****       131.5000 128.0000 166.7500 Du        
  26147 ****       131.5000 128.0000 167.0000 Du        
  26148 ****       131.5000 128.2500 165.7500 Du        
  26149 ****       131.5000 128.2500 166.0000 Du        
  26150 ****       131.5000 128.2500 166.2500 Du        
  26151 ****       131.5000 128.2500 166.5000 Du        
  26152 ****       131.5000 128.2500 166.7500 Du        
  26153 ****       131.5000 128.2500 167.0000 Du        
  26154 ****       131.5000 128.5000 166.2500 Du        
  26155 ****       131.5000 128.5000 166.5000 Du        
  26156 ****       131.5000 128.5000 166.7500 Du        
  26157 ****       131.5000 128.5000 167.0000 Du        
  26158 ****       131.5000 128.7500 166.5000 Du        
  26159 ****       131.5000 128.7500 166.7500 Du        
  26160 ****       131.5000 128.7500 167.0000 Du        
  26161 ****       131.5000 129.0000 166.7500 Du        
  26162 ****       131.5000 129.0000 167.0000 Du        
  26163 ****       131.5000 129.2500 166.7500 Du        
  26164 ****       131.5000 129.2500 167.0000 Du        
  26165 ****       131.5000 129.2500 167.2500 Du        
  26166 ****       131.5000 129.5000 167.0000 Du        
  26167 ****       131.5000 129.5000 167.2500 Du        
  26168 ****       131.5000 129.5000 167.5000 Du        
  26169 ****       131.5000 129.7500 154.7500 Du        
  26170 ****       131.5000 129.7500 155.0000 Du        
  26171 ****       131.5000 129.7500 167.0000 Du        
  26172 ****       131.5000 129.7500 167.2500 Du        
  26173 ****       131.5000 129.7500 167.5000 Du        
  26174 ****       131.5000 129.7500 167.7500 Du        
  26175 ****       131.5000 130.0000 154.5000 Du        
  26176 ****       131.5000 130.0000 154.7500 Du        
  26177 ****       131.5000 130.0000 155.0000 Du        
  26178 ****       131.5000 130.0000 167.0000 Du        
  26179 ****       131.5000 130.0000 167.2500 Du        
  26180 ****       131.5000 130.0000 167.5000 Du        
  26181 ****       131.5000 130.0000 167.7500 Du        
  26182 ****       131.5000 130.0000 168.0000 Du        
  26183 ****       131.5000 130.2500 154.5000 Du        
  26184 ****       131.5000 130.2500 154.7500 Du        
  26185 ****       131.5000 130.2500 155.0000 Du        
  26186 ****       131.5000 130.2500 167.0000 Du        
  26187 ****       131.5000 130.2500 167.2500 Du        
  26188 ****       131.5000 130.2500 167.5000 Du        
  26189 ****       131.5000 130.2500 167.7500 Du        
  26190 ****       131.5000 130.2500 168.0000 Du        
  26191 ****       131.5000 130.5000 154.5000 Du        
  26192 ****       131.5000 130.5000 154.7500 Du        
  26193 ****       131.5000 130.5000 155.0000 Du        
  26194 ****       131.5000 130.5000 167.0000 Du        
  26195 ****       131.5000 130.5000 167.2500 Du        
  26196 ****       131.5000 130.5000 167.5000 Du        
  26197 ****       131.5000 130.5000 167.7500 Du        
  26198 ****       131.5000 130.5000 168.0000 Du        
  26199 ****       131.5000 130.5000 168.2500 Du        
  26200 ****       131.5000 130.7500 154.7500 Du        
  26201 ****       131.5000 130.7500 155.0000 Du        
  26202 ****       131.5000 130.7500 167.0000 Du        
  26203 ****       131.5000 130.7500 167.2500 Du        
  26204 ****       131.5000 130.7500 167.5000 Du        
  26205 ****       131.5000 130.7500 167.7500 Du        
  26206 ****       131.5000 130.7500 168.0000 Du        
  26207 ****       131.5000 130.7500 168.2500 Du        
  26208 ****       131.5000 130.7500 168.5000 Du        
  26209 ****       131.5000 131.0000 167.0000 Du        
  26210 ****       131.5000 131.0000 167.2500 Du        
  26211 ****       131.5000 131.0000 167.5000 Du        
  26212 ****       131.5000 131.0000 167.7500 Du        
  26213 ****       131.5000 131.0000 168.0000 Du        
  26214 ****       131.5000 131.0000 168.2500 Du        
  26215 ****       131.5000 131.0000 168.5000 Du        
  26216 ****       131.5000 131.0000 168.7500 Du        
  26217 ****       131.5000 131.2500 167.0000 Du        
  26218 ****       131.5000 131.2500 167.2500 Du        
  26219 ****       131.5000 131.2500 167.5000 Du        
  26220 ****       131.5000 131.2500 167.7500 Du        
  26221 ****       131.5000 131.2500 168.0000 Du        
  26222 ****       131.5000 131.2500 168.2500 Du        
  26223 ****       131.5000 131.2500 168.5000 Du        
  26224 ****       131.5000 131.2500 168.7500 Du        
  26225 ****       131.5000 131.2500 169.0000 Du        
  26226 ****       131.5000 131.5000 167.0000 Du        
  26227 ****       131.5000 131.5000 167.2500 Du        
  26228 ****       131.5000 131.5000 167.5000 Du        
  26229 ****       131.5000 131.5000 167.7500 Du        
  26230 ****       131.5000 131.5000 168.0000 Du        
  26231 ****       131.5000 131.5000 168.2500 Du        
  26232 ****       131.5000 131.5000 168.5000 Du        
  26233 ****       131.5000 131.5000 168.7500 Du        
  26234 ****       131.5000 131.5000 169.0000 Du        
  26235 ****       131.5000 131.5000 169.2500 Du        
  26236 ****       131.5000 131.7500 167.2500 Du        
  26237 ****       131.5000 131.7500 167.5000 Du        
  26238 ****       131.5000 131.7500 167.7500 Du        
  26239 ****       131.5000 131.7500 168.0000 Du        
  26240 ****       131.5000 131.7500 168.2500 Du        
  26241 ****       131.5000 131.7500 168.5000 Du        
  26242 ****       131.5000 131.7500 168.7500 Du        
  26243 ****       131.5000 131.7500 169.0000 Du        
  26244 ****       131.5000 131.7500 169.2500 Du        
  26245 ****       131.5000 132.2500 137.7500 Du        
  26246 ****       131.5000 132.2500 138.0000 Du        
  26247 ****       131.5000 132.2500 138.2500 Du        
  26248 ****       131.5000 132.5000 137.7500 Du        
  26249 ****       131.5000 132.5000 138.0000 Du        
  26250 ****       131.5000 132.5000 138.2500 Du        
  26251 ****       131.5000 132.5000 138.5000 Du        
  26252 ****       131.5000 132.7500 138.0000 Du        
  26253 ****       131.5000 132.7500 138.2500 Du        
  26254 ****       131.5000 132.7500 138.5000 Du        
  26255 ****       131.5000 132.7500 138.7500 Du        
  26256 ****       131.5000 133.0000 138.0000 Du        
  26257 ****       131.5000 133.0000 138.2500 Du        
  26258 ****       131.5000 133.0000 138.5000 Du        
  26259 ****       131.5000 133.0000 138.7500 Du        
  26260 ****       131.5000 133.0000 139.0000 Du        
  26261 ****       131.5000 133.0000 155.5000 Du        
  26262 ****       131.5000 133.2500 138.2500 Du        
  26263 ****       131.5000 133.2500 138.5000 Du        
  26264 ****       131.5000 133.2500 138.7500 Du        
  26265 ****       131.5000 133.2500 139.0000 Du        
  26266 ****       131.5000 133.2500 139.2500 Du        
  26267 ****       131.5000 133.2500 155.2500 Du        
  26268 ****       131.5000 133.2500 155.5000 Du        
  26269 ****       131.5000 133.2500 155.7500 Du        
  26270 ****       131.5000 133.5000 138.5000 Du        
  26271 ****       131.5000 133.5000 138.7500 Du        
  26272 ****       131.5000 133.5000 139.0000 Du        
  26273 ****       131.5000 133.5000 139.2500 Du        
  26274 ****       131.5000 133.5000 139.5000 Du        
  26275 ****       131.5000 133.5000 139.7500 Du        
  26276 ****       131.5000 133.5000 140.0000 Du        
  26277 ****       131.5000 133.5000 140.2500 Du        
  26278 ****       131.5000 133.5000 154.7500 Du        
  26279 ****       131.5000 133.5000 155.0000 Du        
  26280 ****       131.5000 133.5000 155.2500 Du        
  26281 ****       131.5000 133.5000 155.5000 Du        
  26282 ****       131.5000 133.5000 155.7500 Du        
  26283 ****       131.5000 133.5000 156.0000 Du        
  26284 ****       131.5000 133.7500 138.7500 Du        
  26285 ****       131.5000 133.7500 139.0000 Du        
  26286 ****       131.5000 133.7500 139.2500 Du        
  26287 ****       131.5000 133.7500 139.5000 Du        
  26288 ****       131.5000 133.7500 139.7500 Du        
  26289 ****       131.5000 133.7500 140.0000 Du        
  26290 ****       131.5000 133.7500 140.2500 Du        
  26291 ****       131.5000 133.7500 140.5000 Du        
  26292 ****       131.5000 133.7500 140.7500 Du        
  26293 ****       131.5000 133.7500 141.0000 Du        
  26294 ****       131.5000 133.7500 141.2500 Du        
  26295 ****       131.5000 133.7500 154.7500 Du        
  26296 ****       131.5000 133.7500 155.0000 Du        
  26297 ****       131.5000 133.7500 155.2500 Du        
  26298 ****       131.5000 133.7500 155.5000 Du        
  26299 ****       131.5000 133.7500 155.7500 Du        
  26300 ****       131.5000 133.7500 156.0000 Du        
  26301 ****       131.5000 133.7500 156.2500 Du        
  26302 ****       131.5000 134.0000 140.0000 Du        
  26303 ****       131.5000 134.0000 140.2500 Du        
  26304 ****       131.5000 134.0000 140.5000 Du        
  26305 ****       131.5000 134.0000 140.7500 Du        
  26306 ****       131.5000 134.0000 141.0000 Du        
  26307 ****       131.5000 134.0000 141.2500 Du        
  26308 ****       131.5000 134.0000 155.0000 Du        
  26309 ****       131.5000 134.0000 155.2500 Du        
  26310 ****       131.5000 134.0000 155.5000 Du        
  26311 ****       131.5000 134.0000 155.7500 Du        
  26312 ****       131.5000 134.0000 156.0000 Du        
  26313 ****       131.5000 134.0000 156.2500 Du        
  26314 ****       131.5000 134.0000 156.5000 Du        
  26315 ****       131.5000 134.2500 140.7500 Du        
  26316 ****       131.5000 134.2500 141.0000 Du        
  26317 ****       131.5000 134.2500 141.2500 Du        
  26318 ****       131.5000 134.2500 155.2500 Du        
  26319 ****       131.5000 134.2500 155.5000 Du        
  26320 ****       131.5000 134.2500 155.7500 Du        
  26321 ****       131.5000 134.2500 156.0000 Du        
  26322 ****       131.5000 134.2500 156.2500 Du        
  26323 ****       131.5000 134.2500 156.5000 Du        
  26324 ****       131.5000 134.5000 155.5000 Du        
  26325 ****       131.5000 134.5000 155.7500 Du        
  26326 ****       131.5000 134.5000 156.0000 Du        
  26327 ****       131.5000 134.5000 156.2500 Du        
  26328 ****       131.5000 134.5000 156.5000 Du        
  26329 ****       131.5000 134.5000 156.7500 Du        
  26330 ****       131.5000 134.7500 155.7500 Du        
  26331 ****       131.5000 134.7500 156.0000 Du        
  26332 ****       131.5000 134.7500 156.2500 Du        
  26333 ****       131.5000 134.7500 156.5000 Du        
  26334 ****       131.5000 134.7500 156.7500 Du        
  26335 ****       131.5000 135.5000 165.0000 Du        
  26336 ****       131.5000 135.5000 165.2500 Du        
  26337 ****       131.5000 136.7500  96.5000 Du        
  26338 ****       131.5000 137.0000  96.0000 Du        
  26339 ****       131.5000 137.0000  96.2500 Du        
  26340 ****       131.5000 137.0000  96.5000 Du        
  26341 ****       131.5000 137.0000  96.7500 Du        
  26342 ****       131.5000 137.0000  97.0000 Du        
  26343 ****       131.5000 137.2500  95.7500 Du        
  26344 ****       131.5000 137.2500  96.0000 Du        
  26345 ****       131.5000 137.2500  96.2500 Du        
  26346 ****       131.5000 137.2500  96.5000 Du        
  26347 ****       131.5000 137.2500  96.7500 Du        
  26348 ****       131.5000 137.2500  97.0000 Du        
  26349 ****       131.5000 137.5000  95.7500 Du        
  26350 ****       131.5000 137.5000  96.0000 Du        
  26351 ****       131.5000 137.5000  96.2500 Du        
  26352 ****       131.5000 137.5000  96.5000 Du        
  26353 ****       131.5000 137.5000  96.7500 Du        
  26354 ****       131.5000 137.5000  97.0000 Du        
  26355 ****       131.5000 137.7500  95.7500 Du        
  26356 ****       131.5000 137.7500  96.0000 Du        
  26357 ****       131.5000 137.7500  96.2500 Du        
  26358 ****       131.5000 137.7500  96.5000 Du        
  26359 ****       131.5000 137.7500  96.7500 Du        
  26360 ****       131.5000 137.7500  97.0000 Du        
  26361 ****       131.5000 138.0000  95.5000 Du        
  26362 ****       131.5000 138.0000  95.7500 Du        
  26363 ****       131.5000 138.0000  96.0000 Du        
  26364 ****       131.5000 138.0000  96.2500 Du        
  26365 ****       131.5000 138.0000  96.5000 Du        
  26366 ****       131.5000 138.0000  96.7500 Du        
  26367 ****       131.5000 138.0000  97.0000 Du        
  26368 ****       131.5000 138.2500  95.7500 Du        
  26369 ****       131.5000 138.2500  96.0000 Du        
  26370 ****       131.5000 138.2500  96.2500 Du        
  26371 ****       131.5000 138.2500  96.5000 Du        
  26372 ****       131.5000 138.2500  96.7500 Du        
  26373 ****       131.5000 139.2500 104.2500 Du        
  26374 ****       131.5000 139.2500 104.5000 Du        
  26375 ****       131.5000 139.2500 104.7500 Du        
  26376 ****       131.5000 139.2500 105.0000 Du        
  26377 ****       131.5000 139.2500 105.2500 Du        
  26378 ****       131.5000 139.5000 104.0000 Du        
  26379 ****       131.5000 139.5000 104.2500 Du        
  26380 ****       131.5000 139.5000 104.5000 Du        
  26381 ****       131.5000 139.5000 104.7500 Du        
  26382 ****       131.5000 139.5000 105.0000 Du        
  26383 ****       131.5000 139.5000 105.2500 Du        
  26384 ****       131.5000 139.5000 105.5000 Du        
  26385 ****       131.5000 139.5000 105.7500 Du        
  26386 ****       131.5000 139.5000 106.0000 Du        
  26387 ****       131.5000 139.5000 106.2500 Du        
  26388 ****       131.5000 139.7500 103.7500 Du        
  26389 ****       131.5000 139.7500 104.0000 Du        
  26390 ****       131.5000 139.7500 104.2500 Du        
  26391 ****       131.5000 139.7500 104.5000 Du        
  26392 ****       131.5000 139.7500 104.7500 Du        
  26393 ****       131.5000 139.7500 105.0000 Du        
  26394 ****       131.5000 139.7500 105.2500 Du        
  26395 ****       131.5000 139.7500 105.5000 Du        
  26396 ****       131.5000 139.7500 105.7500 Du        
  26397 ****       131.5000 139.7500 106.0000 Du        
  26398 ****       131.5000 139.7500 106.2500 Du        
  26399 ****       131.5000 140.0000 103.5000 Du        
  26400 ****       131.5000 140.0000 103.7500 Du        
  26401 ****       131.5000 140.0000 104.0000 Du        
  26402 ****       131.5000 140.0000 104.2500 Du        
  26403 ****       131.5000 140.0000 104.5000 Du        
  26404 ****       131.5000 140.0000 104.7500 Du        
  26405 ****       131.5000 140.0000 105.0000 Du        
  26406 ****       131.5000 140.0000 105.2500 Du        
  26407 ****       131.5000 140.0000 105.5000 Du        
  26408 ****       131.5000 140.0000 105.7500 Du        
  26409 ****       131.5000 140.2500 103.2500 Du        
  26410 ****       131.5000 140.2500 103.5000 Du        
  26411 ****       131.5000 140.2500 103.7500 Du        
  26412 ****       131.5000 140.2500 104.0000 Du        
  26413 ****       131.5000 140.2500 104.2500 Du        
  26414 ****       131.5000 140.2500 104.5000 Du        
  26415 ****       131.5000 140.2500 104.7500 Du        
  26416 ****       131.5000 140.2500 105.0000 Du        
  26417 ****       131.5000 140.2500 105.2500 Du        
  26418 ****       131.5000 140.5000 103.2500 Du        
  26419 ****       131.5000 140.5000 103.5000 Du        
  26420 ****       131.5000 140.5000 103.7500 Du        
  26421 ****       131.5000 140.5000 104.0000 Du        
  26422 ****       131.5000 140.5000 104.2500 Du        
  26423 ****       131.5000 140.5000 104.5000 Du        
  26424 ****       131.5000 140.5000 104.7500 Du        
  26425 ****       131.5000 140.5000 105.0000 Du        
  26426 ****       131.5000 140.7500 103.2500 Du        
  26427 ****       131.5000 140.7500 103.5000 Du        
  26428 ****       131.5000 140.7500 103.7500 Du        
  26429 ****       131.5000 140.7500 104.0000 Du        
  26430 ****       131.5000 140.7500 104.2500 Du        
  26431 ****       131.5000 140.7500 104.5000 Du        
  26432 ****       131.5000 140.7500 104.7500 Du        
  26433 ****       131.5000 141.0000 103.5000 Du        
  26434 ****       131.5000 141.0000 103.7500 Du        
  26435 ****       131.5000 141.0000 104.0000 Du        
  26436 ****       131.5000 141.2500 103.5000 Du        
  26437 ****       131.5000 142.7500  99.5000 Du        
  26438 ****       131.5000 143.0000  99.0000 Du        
  26439 ****       131.5000 143.0000  99.2500 Du        
  26440 ****       131.5000 143.0000  99.5000 Du        
  26441 ****       131.5000 143.0000  99.7500 Du        
  26442 ****       131.5000 143.2500  98.5000 Du        
  26443 ****       131.5000 143.2500  98.7500 Du        
  26444 ****       131.5000 143.2500  99.0000 Du        
  26445 ****       131.5000 143.2500  99.2500 Du        
  26446 ****       131.5000 143.2500  99.5000 Du        
  26447 ****       131.5000 143.2500  99.7500 Du        
  26448 ****       131.5000 143.5000  98.5000 Du        
  26449 ****       131.5000 143.5000  98.7500 Du        
  26450 ****       131.5000 143.5000  99.0000 Du        
  26451 ****       131.5000 143.5000  99.2500 Du        
  26452 ****       131.5000 143.5000  99.5000 Du        
  26453 ****       131.5000 143.7500  98.7500 Du        
  26454 ****       131.5000 143.7500  99.0000 Du        
  26455 ****       131.5000 143.7500  99.2500 Du        
  26456 ****       131.5000 143.7500  99.5000 Du        
  26457 ****       131.5000 143.7500 146.7500 Du        
  26458 ****       131.5000 143.7500 147.0000 Du        
  26459 ****       131.5000 143.7500 147.2500 Du        
  26460 ****       131.5000 144.0000  99.0000 Du        
  26461 ****       131.5000 144.0000  99.2500 Du        
  26462 ****       131.5000 144.0000 146.5000 Du        
  26463 ****       131.5000 144.0000 146.7500 Du        
  26464 ****       131.5000 144.0000 147.0000 Du        
  26465 ****       131.5000 144.0000 147.2500 Du        
  26466 ****       131.5000 144.0000 147.5000 Du        
  26467 ****       131.5000 144.2500 146.5000 Du        
  26468 ****       131.5000 144.2500 146.7500 Du        
  26469 ****       131.5000 144.2500 147.0000 Du        
  26470 ****       131.5000 144.2500 147.2500 Du        
  26471 ****       131.5000 144.2500 147.5000 Du        
  26472 ****       131.5000 144.5000 146.5000 Du        
  26473 ****       131.5000 144.5000 146.7500 Du        
  26474 ****       131.5000 144.5000 147.0000 Du        
  26475 ****       131.5000 144.5000 147.2500 Du        
  26476 ****       131.5000 144.5000 147.5000 Du        
  26477 ****       131.5000 144.7500 146.5000 Du        
  26478 ****       131.5000 144.7500 146.7500 Du        
  26479 ****       131.7500 121.0000 143.7500 Du        
  26480 ****       131.7500 121.0000 144.0000 Du        
  26481 ****       131.7500 121.0000 144.2500 Du        
  26482 ****       131.7500 121.0000 144.5000 Du        
  26483 ****       131.7500 121.0000 144.7500 Du        
  26484 ****       131.7500 121.0000 145.0000 Du        
  26485 ****       131.7500 121.0000 145.2500 Du        
  26486 ****       131.7500 121.2500 143.2500 Du        
  26487 ****       131.7500 121.2500 143.5000 Du        
  26488 ****       131.7500 121.2500 143.7500 Du        
  26489 ****       131.7500 121.2500 144.0000 Du        
  26490 ****       131.7500 121.2500 144.2500 Du        
  26491 ****       131.7500 121.2500 144.5000 Du        
  26492 ****       131.7500 121.2500 144.7500 Du        
  26493 ****       131.7500 121.2500 145.0000 Du        
  26494 ****       131.7500 121.2500 145.2500 Du        
  26495 ****       131.7500 121.5000 142.7500 Du        
  26496 ****       131.7500 121.5000 143.0000 Du        
  26497 ****       131.7500 121.5000 143.2500 Du        
  26498 ****       131.7500 121.5000 143.5000 Du        
  26499 ****       131.7500 121.5000 143.7500 Du        
  26500 ****       131.7500 121.5000 144.0000 Du        
  26501 ****       131.7500 121.5000 144.2500 Du        
  26502 ****       131.7500 121.5000 144.5000 Du        
  26503 ****       131.7500 121.5000 144.7500 Du        
  26504 ****       131.7500 121.5000 145.0000 Du        
  26505 ****       131.7500 121.5000 145.2500 Du        
  26506 ****       131.7500 121.7500 142.7500 Du        
  26507 ****       131.7500 121.7500 143.0000 Du        
  26508 ****       131.7500 121.7500 143.2500 Du        
  26509 ****       131.7500 121.7500 143.5000 Du        
  26510 ****       131.7500 121.7500 143.7500 Du        
  26511 ****       131.7500 121.7500 144.0000 Du        
  26512 ****       131.7500 121.7500 144.2500 Du        
  26513 ****       131.7500 121.7500 144.5000 Du        
  26514 ****       131.7500 121.7500 144.7500 Du        
  26515 ****       131.7500 121.7500 145.0000 Du        
  26516 ****       131.7500 121.7500 145.2500 Du        
  26517 ****       131.7500 122.0000 142.7500 Du        
  26518 ****       131.7500 122.0000 143.0000 Du        
  26519 ****       131.7500 122.0000 143.2500 Du        
  26520 ****       131.7500 122.0000 143.5000 Du        
  26521 ****       131.7500 122.0000 143.7500 Du        
  26522 ****       131.7500 122.0000 144.0000 Du        
  26523 ****       131.7500 122.0000 144.2500 Du        
  26524 ****       131.7500 122.0000 144.5000 Du        
  26525 ****       131.7500 122.0000 144.7500 Du        
  26526 ****       131.7500 122.0000 145.0000 Du        
  26527 ****       131.7500 122.0000 145.2500 Du        
  26528 ****       131.7500 122.2500 143.0000 Du        
  26529 ****       131.7500 122.2500 143.2500 Du        
  26530 ****       131.7500 122.2500 143.5000 Du        
  26531 ****       131.7500 122.2500 143.7500 Du        
  26532 ****       131.7500 122.2500 144.0000 Du        
  26533 ****       131.7500 122.2500 144.2500 Du        
  26534 ****       131.7500 122.2500 144.5000 Du        
  26535 ****       131.7500 122.2500 144.7500 Du        
  26536 ****       131.7500 122.2500 145.0000 Du        
  26537 ****       131.7500 122.2500 145.2500 Du        
  26538 ****       131.7500 122.5000 143.0000 Du        
  26539 ****       131.7500 122.5000 143.2500 Du        
  26540 ****       131.7500 122.5000 143.5000 Du        
  26541 ****       131.7500 122.5000 143.7500 Du        
  26542 ****       131.7500 122.5000 144.0000 Du        
  26543 ****       131.7500 122.5000 144.2500 Du        
  26544 ****       131.7500 122.5000 144.5000 Du        
  26545 ****       131.7500 122.5000 144.7500 Du        
  26546 ****       131.7500 122.5000 145.0000 Du        
  26547 ****       131.7500 122.5000 145.2500 Du        
  26548 ****       131.7500 122.7500 143.2500 Du        
  26549 ****       131.7500 122.7500 143.5000 Du        
  26550 ****       131.7500 122.7500 143.7500 Du        
  26551 ****       131.7500 122.7500 144.0000 Du        
  26552 ****       131.7500 122.7500 144.2500 Du        
  26553 ****       131.7500 122.7500 144.5000 Du        
  26554 ****       131.7500 122.7500 144.7500 Du        
  26555 ****       131.7500 122.7500 145.0000 Du        
  26556 ****       131.7500 122.7500 145.2500 Du        
  26557 ****       131.7500 123.0000 143.5000 Du        
  26558 ****       131.7500 123.0000 143.7500 Du        
  26559 ****       131.7500 123.0000 144.0000 Du        
  26560 ****       131.7500 123.0000 144.2500 Du        
  26561 ****       131.7500 123.0000 144.5000 Du        
  26562 ****       131.7500 123.0000 144.7500 Du        
  26563 ****       131.7500 123.0000 145.0000 Du        
  26564 ****       131.7500 123.0000 145.2500 Du        
  26565 ****       131.7500 123.2500 143.7500 Du        
  26566 ****       131.7500 123.2500 144.0000 Du        
  26567 ****       131.7500 123.2500 144.2500 Du        
  26568 ****       131.7500 123.2500 144.5000 Du        
  26569 ****       131.7500 123.2500 144.7500 Du        
  26570 ****       131.7500 123.2500 145.0000 Du        
  26571 ****       131.7500 123.2500 145.2500 Du        
  26572 ****       131.7500 123.2500 145.5000 Du        
  26573 ****       131.7500 123.5000 143.7500 Du        
  26574 ****       131.7500 123.5000 144.0000 Du        
  26575 ****       131.7500 123.5000 144.2500 Du        
  26576 ****       131.7500 123.5000 144.5000 Du        
  26577 ****       131.7500 123.5000 144.7500 Du        
  26578 ****       131.7500 123.5000 145.0000 Du        
  26579 ****       131.7500 123.5000 145.2500 Du        
  26580 ****       131.7500 123.5000 145.5000 Du        
  26581 ****       131.7500 123.7500 144.0000 Du        
  26582 ****       131.7500 123.7500 144.2500 Du        
  26583 ****       131.7500 123.7500 144.5000 Du        
  26584 ****       131.7500 123.7500 144.7500 Du        
  26585 ****       131.7500 123.7500 145.0000 Du        
  26586 ****       131.7500 123.7500 145.2500 Du        
  26587 ****       131.7500 123.7500 145.5000 Du        
  26588 ****       131.7500 124.0000 144.0000 Du        
  26589 ****       131.7500 124.0000 144.2500 Du        
  26590 ****       131.7500 124.0000 144.5000 Du        
  26591 ****       131.7500 124.0000 144.7500 Du        
  26592 ****       131.7500 124.0000 145.0000 Du        
  26593 ****       131.7500 124.0000 145.2500 Du        
  26594 ****       131.7500 124.0000 145.5000 Du        
  26595 ****       131.7500 124.0000 145.7500 Du        
  26596 ****       131.7500 124.2500 144.2500 Du        
  26597 ****       131.7500 124.2500 144.5000 Du        
  26598 ****       131.7500 124.2500 144.7500 Du        
  26599 ****       131.7500 124.2500 145.0000 Du        
  26600 ****       131.7500 124.2500 145.2500 Du        
  26601 ****       131.7500 124.2500 145.5000 Du        
  26602 ****       131.7500 124.2500 145.7500 Du        
  26603 ****       131.7500 124.2500 146.0000 Du        
  26604 ****       131.7500 124.5000 144.2500 Du        
  26605 ****       131.7500 124.5000 144.5000 Du        
  26606 ****       131.7500 124.5000 144.7500 Du        
  26607 ****       131.7500 124.5000 145.0000 Du        
  26608 ****       131.7500 124.5000 145.2500 Du        
  26609 ****       131.7500 124.5000 145.7500 Du        
  26610 ****       131.7500 124.5000 146.0000 Du        
  26611 ****       131.7500 124.7500 144.7500 Du        
  26612 ****       131.7500 124.7500 145.0000 Du        
  26613 ****       131.7500 124.7500 145.2500 Du        
  26614 ****       131.7500 124.7500 145.7500 Du        
  26615 ****       131.7500 124.7500 146.0000 Du        
  26616 ****       131.7500 124.7500 146.2500 Du        
  26617 ****       131.7500 124.7500 146.5000 Du        
  26618 ****       131.7500 125.0000 144.7500 Du        
  26619 ****       131.7500 125.0000 145.0000 Du        
  26620 ****       131.7500 125.0000 145.2500 Du        
  26621 ****       131.7500 125.0000 146.0000 Du        
  26622 ****       131.7500 125.0000 146.2500 Du        
  26623 ****       131.7500 125.0000 146.5000 Du        
  26624 ****       131.7500 125.0000 146.7500 Du        
  26625 ****       131.7500 125.2500 144.7500 Du        
  26626 ****       131.7500 125.2500 145.0000 Du        
  26627 ****       131.7500 125.2500 145.2500 Du        
  26628 ****       131.7500 125.2500 146.2500 Du        
  26629 ****       131.7500 125.2500 146.7500 Du        
  26630 ****       131.7500 125.5000 145.0000 Du        
  26631 ****       131.7500 126.0000 165.7500 Du        
  26632 ****       131.7500 126.0000 166.0000 Du        
  26633 ****       131.7500 126.0000 166.2500 Du        
  26634 ****       131.7500 126.2500 165.5000 Du        
  26635 ****       131.7500 126.2500 165.7500 Du        
  26636 ****       131.7500 126.2500 166.0000 Du        
  26637 ****       131.7500 126.2500 166.2500 Du        
  26638 ****       131.7500 126.2500 166.5000 Du        
  26639 ****       131.7500 126.2500 166.7500 Du        
  26640 ****       131.7500 126.2500 167.0000 Du        
  26641 ****       131.7500 126.2500 167.2500 Du        
  26642 ****       131.7500 126.2500 167.5000 Du        
  26643 ****       131.7500 126.5000 165.5000 Du        
  26644 ****       131.7500 126.5000 165.7500 Du        
  26645 ****       131.7500 126.5000 166.0000 Du        
  26646 ****       131.7500 126.5000 166.2500 Du        
  26647 ****       131.7500 126.5000 166.5000 Du        
  26648 ****       131.7500 126.5000 166.7500 Du        
  26649 ****       131.7500 126.5000 167.0000 Du        
  26650 ****       131.7500 126.5000 167.2500 Du        
  26651 ****       131.7500 126.5000 167.5000 Du        
  26652 ****       131.7500 126.7500 165.5000 Du        
  26653 ****       131.7500 126.7500 165.7500 Du        
  26654 ****       131.7500 126.7500 166.0000 Du        
  26655 ****       131.7500 126.7500 166.2500 Du        
  26656 ****       131.7500 126.7500 166.5000 Du        
  26657 ****       131.7500 126.7500 166.7500 Du        
  26658 ****       131.7500 126.7500 167.0000 Du        
  26659 ****       131.7500 126.7500 167.2500 Du        
  26660 ****       131.7500 126.7500 167.5000 Du        
  26661 ****       131.7500 127.0000 144.0000 Du        
  26662 ****       131.7500 127.0000 165.2500 Du        
  26663 ****       131.7500 127.0000 165.5000 Du        
  26664 ****       131.7500 127.0000 165.7500 Du        
  26665 ****       131.7500 127.0000 166.0000 Du        
  26666 ****       131.7500 127.0000 166.2500 Du        
  26667 ****       131.7500 127.0000 166.5000 Du        
  26668 ****       131.7500 127.0000 166.7500 Du        
  26669 ****       131.7500 127.0000 167.0000 Du        
  26670 ****       131.7500 127.0000 167.2500 Du        
  26671 ****       131.7500 127.2500 144.0000 Du        
  26672 ****       131.7500 127.2500 144.2500 Du        
  26673 ****       131.7500 127.2500 165.2500 Du        
  26674 ****       131.7500 127.2500 165.5000 Du        
  26675 ****       131.7500 127.2500 165.7500 Du        
  26676 ****       131.7500 127.2500 166.0000 Du        
  26677 ****       131.7500 127.2500 166.2500 Du        
  26678 ****       131.7500 127.2500 166.5000 Du        
  26679 ****       131.7500 127.2500 166.7500 Du        
  26680 ****       131.7500 127.2500 167.0000 Du        
  26681 ****       131.7500 127.5000 143.7500 Du        
  26682 ****       131.7500 127.5000 144.0000 Du        
  26683 ****       131.7500 127.5000 144.2500 Du        
  26684 ****       131.7500 127.5000 165.2500 Du        
  26685 ****       131.7500 127.5000 165.5000 Du        
  26686 ****       131.7500 127.5000 165.7500 Du        
  26687 ****       131.7500 127.5000 166.0000 Du        
  26688 ****       131.7500 127.5000 166.2500 Du        
  26689 ****       131.7500 127.5000 166.5000 Du        
  26690 ****       131.7500 127.5000 166.7500 Du        
  26691 ****       131.7500 127.5000 167.0000 Du        
  26692 ****       131.7500 127.7500 143.7500 Du        
  26693 ****       131.7500 127.7500 144.0000 Du        
  26694 ****       131.7500 127.7500 144.2500 Du        
  26695 ****       131.7500 127.7500 165.0000 Du        
  26696 ****       131.7500 127.7500 165.2500 Du        
  26697 ****       131.7500 127.7500 165.5000 Du        
  26698 ****       131.7500 127.7500 165.7500 Du        
  26699 ****       131.7500 127.7500 166.0000 Du        
  26700 ****       131.7500 127.7500 166.2500 Du        
  26701 ****       131.7500 127.7500 166.5000 Du        
  26702 ****       131.7500 127.7500 166.7500 Du        
  26703 ****       131.7500 128.0000 143.2500 Du        
  26704 ****       131.7500 128.0000 143.7500 Du        
  26705 ****       131.7500 128.0000 144.0000 Du        
  26706 ****       131.7500 128.0000 144.2500 Du        
  26707 ****       131.7500 128.0000 165.2500 Du        
  26708 ****       131.7500 128.0000 165.5000 Du        
  26709 ****       131.7500 128.0000 165.7500 Du        
  26710 ****       131.7500 128.0000 166.0000 Du        
  26711 ****       131.7500 128.0000 166.2500 Du        
  26712 ****       131.7500 128.0000 166.5000 Du        
  26713 ****       131.7500 128.0000 166.7500 Du        
  26714 ****       131.7500 128.2500 143.7500 Du        
  26715 ****       131.7500 128.2500 144.0000 Du        
  26716 ****       131.7500 128.2500 165.7500 Du        
  26717 ****       131.7500 128.2500 166.0000 Du        
  26718 ****       131.7500 128.2500 166.2500 Du        
  26719 ****       131.7500 128.2500 166.5000 Du        
  26720 ****       131.7500 128.2500 166.7500 Du        
  26721 ****       131.7500 128.5000 166.0000 Du        
  26722 ****       131.7500 128.5000 166.2500 Du        
  26723 ****       131.7500 128.5000 166.5000 Du        
  26724 ****       131.7500 128.5000 166.7500 Du        
  26725 ****       131.7500 128.7500 166.2500 Du        
  26726 ****       131.7500 128.7500 166.5000 Du        
  26727 ****       131.7500 128.7500 166.7500 Du        
  26728 ****       131.7500 129.0000 166.5000 Du        
  26729 ****       131.7500 129.0000 166.7500 Du        
  26730 ****       131.7500 129.2500 166.7500 Du        
  26731 ****       131.7500 129.2500 167.0000 Du        
  26732 ****       131.7500 129.5000 167.0000 Du        
  26733 ****       131.7500 129.7500 154.7500 Du        
  26734 ****       131.7500 129.7500 155.0000 Du        
  26735 ****       131.7500 129.7500 167.0000 Du        
  26736 ****       131.7500 129.7500 167.2500 Du        
  26737 ****       131.7500 130.0000 154.5000 Du        
  26738 ****       131.7500 130.0000 154.7500 Du        
  26739 ****       131.7500 130.0000 155.0000 Du        
  26740 ****       131.7500 130.0000 167.0000 Du        
  26741 ****       131.7500 130.0000 167.2500 Du        
  26742 ****       131.7500 130.0000 167.5000 Du        
  26743 ****       131.7500 130.0000 167.7500 Du        
  26744 ****       131.7500 130.2500 154.2500 Du        
  26745 ****       131.7500 130.2500 154.5000 Du        
  26746 ****       131.7500 130.2500 154.7500 Du        
  26747 ****       131.7500 130.2500 155.0000 Du        
  26748 ****       131.7500 130.2500 167.0000 Du        
  26749 ****       131.7500 130.2500 167.2500 Du        
  26750 ****       131.7500 130.2500 167.5000 Du        
  26751 ****       131.7500 130.2500 167.7500 Du        
  26752 ****       131.7500 130.2500 168.0000 Du        
  26753 ****       131.7500 130.5000 154.7500 Du        
  26754 ****       131.7500 130.5000 167.0000 Du        
  26755 ****       131.7500 130.5000 167.2500 Du        
  26756 ****       131.7500 130.5000 167.5000 Du        
  26757 ****       131.7500 130.5000 167.7500 Du        
  26758 ****       131.7500 130.5000 168.0000 Du        
  26759 ****       131.7500 130.5000 168.2500 Du        
  26760 ****       131.7500 130.7500 167.0000 Du        
  26761 ****       131.7500 130.7500 167.2500 Du        
  26762 ****       131.7500 130.7500 167.5000 Du        
  26763 ****       131.7500 130.7500 167.7500 Du        
  26764 ****       131.7500 130.7500 168.0000 Du        
  26765 ****       131.7500 130.7500 168.2500 Du        
  26766 ****       131.7500 131.0000 167.0000 Du        
  26767 ****       131.7500 131.0000 167.2500 Du        
  26768 ****       131.7500 131.0000 167.5000 Du        
  26769 ****       131.7500 131.0000 167.7500 Du        
  26770 ****       131.7500 131.0000 168.0000 Du        
  26771 ****       131.7500 131.0000 168.2500 Du        
  26772 ****       131.7500 131.0000 168.5000 Du        
  26773 ****       131.7500 131.2500 167.0000 Du        
  26774 ****       131.7500 131.2500 167.2500 Du        
  26775 ****       131.7500 131.2500 167.5000 Du        
  26776 ****       131.7500 131.2500 167.7500 Du        
  26777 ****       131.7500 131.2500 168.0000 Du        
  26778 ****       131.7500 131.2500 168.2500 Du        
  26779 ****       131.7500 131.2500 168.5000 Du        
  26780 ****       131.7500 131.2500 168.7500 Du        
  26781 ****       131.7500 131.5000 167.0000 Du        
  26782 ****       131.7500 131.5000 167.2500 Du        
  26783 ****       131.7500 131.5000 167.5000 Du        
  26784 ****       131.7500 131.5000 167.7500 Du        
  26785 ****       131.7500 131.5000 168.0000 Du        
  26786 ****       131.7500 131.5000 168.2500 Du        
  26787 ****       131.7500 131.5000 168.5000 Du        
  26788 ****       131.7500 131.5000 168.7500 Du        
  26789 ****       131.7500 132.5000 137.7500 Du        
  26790 ****       131.7500 132.5000 138.0000 Du        
  26791 ****       131.7500 132.5000 138.2500 Du        
  26792 ****       131.7500 132.7500 138.0000 Du        
  26793 ****       131.7500 132.7500 138.2500 Du        
  26794 ****       131.7500 133.0000 138.0000 Du        
  26795 ****       131.7500 133.0000 138.2500 Du        
  26796 ****       131.7500 133.0000 138.5000 Du        
  26797 ****       131.7500 133.0000 138.7500 Du        
  26798 ****       131.7500 133.2500 138.2500 Du        
  26799 ****       131.7500 133.2500 138.5000 Du        
  26800 ****       131.7500 133.2500 138.7500 Du        
  26801 ****       131.7500 133.2500 139.0000 Du        
  26802 ****       131.7500 133.5000 138.7500 Du        
  26803 ****       131.7500 133.5000 139.0000 Du        
  26804 ****       131.7500 133.5000 155.0000 Du        
  26805 ****       131.7500 133.5000 155.2500 Du        
  26806 ****       131.7500 133.5000 155.5000 Du        
  26807 ****       131.7500 133.5000 155.7500 Du        
  26808 ****       131.7500 133.7500 155.0000 Du        
  26809 ****       131.7500 133.7500 155.2500 Du        
  26810 ****       131.7500 133.7500 155.5000 Du        
  26811 ****       131.7500 133.7500 155.7500 Du        
  26812 ****       131.7500 133.7500 156.0000 Du        
  26813 ****       131.7500 134.0000 140.7500 Du        
  26814 ****       131.7500 134.0000 141.0000 Du        
  26815 ****       131.7500 134.0000 141.2500 Du        
  26816 ****       131.7500 134.0000 155.0000 Du        
  26817 ****       131.7500 134.0000 155.2500 Du        
  26818 ****       131.7500 134.0000 155.5000 Du        
  26819 ****       131.7500 134.0000 155.7500 Du        
  26820 ****       131.7500 134.0000 156.0000 Du        
  26821 ****       131.7500 134.0000 156.2500 Du        
  26822 ****       131.7500 134.2500 141.0000 Du        
  26823 ****       131.7500 134.2500 141.2500 Du        
  26824 ****       131.7500 134.2500 155.2500 Du        
  26825 ****       131.7500 134.2500 155.5000 Du        
  26826 ****       131.7500 134.2500 155.7500 Du        
  26827 ****       131.7500 134.2500 156.0000 Du        
  26828 ****       131.7500 134.2500 156.2500 Du        
  26829 ****       131.7500 134.2500 156.5000 Du        
  26830 ****       131.7500 134.5000 155.5000 Du        
  26831 ****       131.7500 134.5000 155.7500 Du        
  26832 ****       131.7500 134.5000 156.0000 Du        
  26833 ****       131.7500 134.5000 156.2500 Du        
  26834 ****       131.7500 134.5000 156.5000 Du        
  26835 ****       131.7500 134.5000 156.7500 Du        
  26836 ****       131.7500 134.7500 155.7500 Du        
  26837 ****       131.7500 134.7500 156.0000 Du        
  26838 ****       131.7500 134.7500 156.2500 Du        
  26839 ****       131.7500 134.7500 156.5000 Du        
  26840 ****       131.7500 134.7500 156.7500 Du        
  26841 ****       131.7500 136.2500  96.5000 Du        
  26842 ****       131.7500 136.5000  96.2500 Du        
  26843 ****       131.7500 136.5000  96.5000 Du        
  26844 ****       131.7500 136.5000  96.7500 Du        
  26845 ****       131.7500 136.7500  96.0000 Du        
  26846 ****       131.7500 136.7500  96.2500 Du        
  26847 ****       131.7500 136.7500  96.5000 Du        
  26848 ****       131.7500 136.7500  96.7500 Du        
  26849 ****       131.7500 136.7500  97.0000 Du        
  26850 ****       131.7500 137.0000  95.7500 Du        
  26851 ****       131.7500 137.0000  96.0000 Du        
  26852 ****       131.7500 137.0000  96.2500 Du        
  26853 ****       131.7500 137.0000  96.5000 Du        
  26854 ****       131.7500 137.0000  96.7500 Du        
  26855 ****       131.7500 137.0000  97.0000 Du        
  26856 ****       131.7500 137.2500  95.7500 Du        
  26857 ****       131.7500 137.2500  96.0000 Du        
  26858 ****       131.7500 137.2500  96.2500 Du        
  26859 ****       131.7500 137.2500  96.5000 Du        
  26860 ****       131.7500 137.2500  96.7500 Du        
  26861 ****       131.7500 137.2500  97.0000 Du        
  26862 ****       131.7500 137.5000  95.7500 Du        
  26863 ****       131.7500 137.5000  96.0000 Du        
  26864 ****       131.7500 137.5000  96.2500 Du        
  26865 ****       131.7500 137.5000  96.5000 Du        
  26866 ****       131.7500 137.5000  96.7500 Du        
  26867 ****       131.7500 137.5000  97.0000 Du        
  26868 ****       131.7500 137.7500  95.5000 Du        
  26869 ****       131.7500 137.7500  95.7500 Du        
  26870 ****       131.7500 137.7500  96.0000 Du        
  26871 ****       131.7500 137.7500  96.2500 Du        
  26872 ****       131.7500 137.7500  96.5000 Du        
  26873 ****       131.7500 137.7500  96.7500 Du        
  26874 ****       131.7500 137.7500  97.0000 Du        
  26875 ****       131.7500 138.0000  95.5000 Du        
  26876 ****       131.7500 138.0000  95.7500 Du        
  26877 ****       131.7500 138.0000  96.0000 Du        
  26878 ****       131.7500 138.0000  96.2500 Du        
  26879 ****       131.7500 138.0000  96.5000 Du        
  26880 ****       131.7500 138.0000  96.7500 Du        
  26881 ****       131.7500 138.0000  97.0000 Du        
  26882 ****       131.7500 138.2500  95.7500 Du        
  26883 ****       131.7500 138.2500  96.0000 Du        
  26884 ****       131.7500 138.2500  96.2500 Du        
  26885 ****       131.7500 138.2500  96.5000 Du        
  26886 ****       131.7500 138.2500  96.7500 Du        
  26887 ****       131.7500 138.2500  97.0000 Du        
  26888 ****       131.7500 138.2500 142.0000 Du        
  26889 ****       131.7500 138.2500 142.2500 Du        
  26890 ****       131.7500 138.5000 142.0000 Du        
  26891 ****       131.7500 138.5000 142.2500 Du        
  26892 ****       131.7500 139.0000 104.2500 Du        
  26893 ****       131.7500 139.0000 104.5000 Du        
  26894 ****       131.7500 139.0000 142.2500 Du        
  26895 ****       131.7500 139.2500 104.0000 Du        
  26896 ****       131.7500 139.2500 104.2500 Du        
  26897 ****       131.7500 139.2500 104.5000 Du        
  26898 ****       131.7500 139.2500 104.7500 Du        
  26899 ****       131.7500 139.2500 105.0000 Du        
  26900 ****       131.7500 139.2500 105.2500 Du        
  26901 ****       131.7500 139.2500 105.5000 Du        
  26902 ****       131.7500 139.2500 106.5000 Du        
  26903 ****       131.7500 139.2500 106.7500 Du        
  26904 ****       131.7500 139.2500 107.0000 Du        
  26905 ****       131.7500 139.2500 107.2500 Du        
  26906 ****       131.7500 139.5000 104.0000 Du        
  26907 ****       131.7500 139.5000 104.2500 Du        
  26908 ****       131.7500 139.5000 104.5000 Du        
  26909 ****       131.7500 139.5000 104.7500 Du        
  26910 ****       131.7500 139.5000 105.0000 Du        
  26911 ****       131.7500 139.5000 105.2500 Du        
  26912 ****       131.7500 139.5000 105.5000 Du        
  26913 ****       131.7500 139.5000 105.7500 Du        
  26914 ****       131.7500 139.5000 106.0000 Du        
  26915 ****       131.7500 139.5000 106.2500 Du        
  26916 ****       131.7500 139.5000 106.5000 Du        
  26917 ****       131.7500 139.7500 103.7500 Du        
  26918 ****       131.7500 139.7500 104.0000 Du        
  26919 ****       131.7500 139.7500 104.2500 Du        
  26920 ****       131.7500 139.7500 104.5000 Du        
  26921 ****       131.7500 139.7500 104.7500 Du        
  26922 ****       131.7500 139.7500 105.0000 Du        
  26923 ****       131.7500 139.7500 105.2500 Du        
  26924 ****       131.7500 139.7500 105.5000 Du        
  26925 ****       131.7500 139.7500 105.7500 Du        
  26926 ****       131.7500 139.7500 106.0000 Du        
  26927 ****       131.7500 140.0000 103.5000 Du        
  26928 ****       131.7500 140.0000 103.7500 Du        
  26929 ****       131.7500 140.0000 104.0000 Du        
  26930 ****       131.7500 140.0000 104.2500 Du        
  26931 ****       131.7500 140.0000 104.5000 Du        
  26932 ****       131.7500 140.0000 104.7500 Du        
  26933 ****       131.7500 140.0000 105.0000 Du        
  26934 ****       131.7500 140.0000 105.2500 Du        
  26935 ****       131.7500 140.0000 105.5000 Du        
  26936 ****       131.7500 140.2500 103.2500 Du        
  26937 ****       131.7500 140.2500 103.5000 Du        
  26938 ****       131.7500 140.2500 103.7500 Du        
  26939 ****       131.7500 140.2500 104.0000 Du        
  26940 ****       131.7500 140.2500 104.2500 Du        
  26941 ****       131.7500 140.2500 104.5000 Du        
  26942 ****       131.7500 140.2500 104.7500 Du        
  26943 ****       131.7500 140.2500 105.0000 Du        
  26944 ****       131.7500 140.2500 133.7500 Du        
  26945 ****       131.7500 140.2500 134.0000 Du        
  26946 ****       131.7500 140.5000 103.5000 Du        
  26947 ****       131.7500 140.5000 103.7500 Du        
  26948 ****       131.7500 140.5000 104.0000 Du        
  26949 ****       131.7500 140.5000 104.2500 Du        
  26950 ****       131.7500 140.5000 104.5000 Du        
  26951 ****       131.7500 140.5000 104.7500 Du        
  26952 ****       131.7500 140.7500 103.5000 Du        
  26953 ****       131.7500 140.7500 103.7500 Du        
  26954 ****       131.7500 140.7500 104.0000 Du        
  26955 ****       131.7500 142.2500  99.0000 Du        
  26956 ****       131.7500 142.2500  99.2500 Du        
  26957 ****       131.7500 142.2500 100.0000 Du        
  26958 ****       131.7500 142.2500 100.2500 Du        
  26959 ****       131.7500 142.2500 141.7500 Du        
  26960 ****       131.7500 142.5000  99.5000 Du        
  26961 ****       131.7500 142.5000  99.7500 Du        
  26962 ****       131.7500 142.5000 100.0000 Du        
  26963 ****       131.7500 142.5000 100.2500 Du        
  26964 ****       131.7500 142.7500  99.0000 Du        
  26965 ****       131.7500 142.7500  99.2500 Du        
  26966 ****       131.7500 142.7500  99.5000 Du        
  26967 ****       131.7500 142.7500  99.7500 Du        
  26968 ****       131.7500 142.7500 100.0000 Du        
  26969 ****       131.7500 142.7500 100.2500 Du        
  26970 ****       131.7500 143.0000  99.0000 Du        
  26971 ****       131.7500 143.0000  99.2500 Du        
  26972 ****       131.7500 143.0000  99.5000 Du        
  26973 ****       131.7500 143.0000  99.7500 Du        
  26974 ****       131.7500 143.0000 100.0000 Du        
  26975 ****       131.7500 143.2500  99.0000 Du        
  26976 ****       131.7500 143.2500  99.2500 Du        
  26977 ****       131.7500 143.2500  99.5000 Du        
  26978 ****       131.7500 143.2500  99.7500 Du        
  26979 ****       131.7500 143.5000  99.0000 Du        
  26980 ****       131.7500 143.5000  99.2500 Du        
  26981 ****       131.7500 143.5000  99.5000 Du        
  26982 ****       131.7500 143.7500  99.0000 Du        
  26983 ****       131.7500 143.7500  99.2500 Du        
  26984 ****       132.0000 121.0000 143.7500 Du        
  26985 ****       132.0000 121.0000 144.0000 Du        
  26986 ****       132.0000 121.0000 144.2500 Du        
  26987 ****       132.0000 121.0000 144.5000 Du        
  26988 ****       132.0000 121.0000 144.7500 Du        
  26989 ****       132.0000 121.0000 145.0000 Du        
  26990 ****       132.0000 121.0000 145.2500 Du        
  26991 ****       132.0000 121.0000 145.5000 Du        
  26992 ****       132.0000 121.2500 143.7500 Du        
  26993 ****       132.0000 121.2500 144.0000 Du        
  26994 ****       132.0000 121.2500 144.2500 Du        
  26995 ****       132.0000 121.2500 144.5000 Du        
  26996 ****       132.0000 121.2500 144.7500 Du        
  26997 ****       132.0000 121.2500 145.0000 Du        
  26998 ****       132.0000 121.2500 145.2500 Du        
  26999 ****       132.0000 121.5000 143.2500 Du        
  27000 ****       132.0000 121.5000 143.5000 Du        
  27001 ****       132.0000 121.5000 143.7500 Du        
  27002 ****       132.0000 121.5000 144.0000 Du        
  27003 ****       132.0000 121.5000 144.2500 Du        
  27004 ****       132.0000 121.5000 144.5000 Du        
  27005 ****       132.0000 121.5000 144.7500 Du        
  27006 ****       132.0000 121.5000 145.0000 Du        
  27007 ****       132.0000 121.5000 145.2500 Du        
  27008 ****       132.0000 121.7500 143.0000 Du        
  27009 ****       132.0000 121.7500 143.2500 Du        
  27010 ****       132.0000 121.7500 143.5000 Du        
  27011 ****       132.0000 121.7500 143.7500 Du        
  27012 ****       132.0000 121.7500 144.0000 Du        
  27013 ****       132.0000 121.7500 144.2500 Du        
  27014 ****       132.0000 121.7500 144.5000 Du        
  27015 ****       132.0000 121.7500 144.7500 Du        
  27016 ****       132.0000 121.7500 145.0000 Du        
  27017 ****       132.0000 121.7500 145.2500 Du        
  27018 ****       132.0000 122.0000 143.0000 Du        
  27019 ****       132.0000 122.0000 143.2500 Du        
  27020 ****       132.0000 122.0000 143.5000 Du        
  27021 ****       132.0000 122.0000 143.7500 Du        
  27022 ****       132.0000 122.0000 144.0000 Du        
  27023 ****       132.0000 122.0000 144.2500 Du        
  27024 ****       132.0000 122.0000 144.5000 Du        
  27025 ****       132.0000 122.0000 144.7500 Du        
  27026 ****       132.0000 122.0000 145.0000 Du        
  27027 ****       132.0000 122.0000 145.2500 Du        
  27028 ****       132.0000 122.2500 143.0000 Du        
  27029 ****       132.0000 122.2500 143.2500 Du        
  27030 ****       132.0000 122.2500 143.5000 Du        
  27031 ****       132.0000 122.2500 143.7500 Du        
  27032 ****       132.0000 122.2500 144.0000 Du        
  27033 ****       132.0000 122.2500 144.2500 Du        
  27034 ****       132.0000 122.2500 144.5000 Du        
  27035 ****       132.0000 122.2500 144.7500 Du        
  27036 ****       132.0000 122.2500 145.0000 Du        
  27037 ****       132.0000 122.2500 145.2500 Du        
  27038 ****       132.0000 122.5000 143.0000 Du        
  27039 ****       132.0000 122.5000 143.2500 Du        
  27040 ****       132.0000 122.5000 143.5000 Du        
  27041 ****       132.0000 122.5000 143.7500 Du        
  27042 ****       132.0000 122.5000 144.0000 Du        
  27043 ****       132.0000 122.5000 144.2500 Du        
  27044 ****       132.0000 122.5000 144.5000 Du        
  27045 ****       132.0000 122.5000 144.7500 Du        
  27046 ****       132.0000 122.5000 145.0000 Du        
  27047 ****       132.0000 122.5000 145.2500 Du        
  27048 ****       132.0000 122.7500 143.2500 Du        
  27049 ****       132.0000 122.7500 143.5000 Du        
  27050 ****       132.0000 122.7500 143.7500 Du        
  27051 ****       132.0000 122.7500 144.0000 Du        
  27052 ****       132.0000 122.7500 144.2500 Du        
  27053 ****       132.0000 122.7500 144.5000 Du        
  27054 ****       132.0000 122.7500 144.7500 Du        
  27055 ****       132.0000 122.7500 145.0000 Du        
  27056 ****       132.0000 122.7500 145.2500 Du        
  27057 ****       132.0000 123.0000 143.2500 Du        
  27058 ****       132.0000 123.0000 143.5000 Du        
  27059 ****       132.0000 123.0000 143.7500 Du        
  27060 ****       132.0000 123.0000 144.0000 Du        
  27061 ****       132.0000 123.0000 144.2500 Du        
  27062 ****       132.0000 123.0000 144.5000 Du        
  27063 ****       132.0000 123.0000 144.7500 Du        
  27064 ****       132.0000 123.0000 145.0000 Du        
  27065 ****       132.0000 123.0000 145.2500 Du        
  27066 ****       132.0000 123.2500 143.5000 Du        
  27067 ****       132.0000 123.2500 143.7500 Du        
  27068 ****       132.0000 123.2500 144.0000 Du        
  27069 ****       132.0000 123.2500 144.2500 Du        
  27070 ****       132.0000 123.2500 144.5000 Du        
  27071 ****       132.0000 123.2500 144.7500 Du        
  27072 ****       132.0000 123.2500 145.0000 Du        
  27073 ****       132.0000 123.2500 145.2500 Du        
  27074 ****       132.0000 123.2500 145.5000 Du        
  27075 ****       132.0000 123.5000 143.7500 Du        
  27076 ****       132.0000 123.5000 144.0000 Du        
  27077 ****       132.0000 123.5000 144.2500 Du        
  27078 ****       132.0000 123.5000 144.5000 Du        
  27079 ****       132.0000 123.5000 144.7500 Du        
  27080 ****       132.0000 123.5000 145.0000 Du        
  27081 ****       132.0000 123.5000 145.2500 Du        
  27082 ****       132.0000 123.5000 145.5000 Du        
  27083 ****       132.0000 123.7500 143.7500 Du        
  27084 ****       132.0000 123.7500 144.0000 Du        
  27085 ****       132.0000 123.7500 144.2500 Du        
  27086 ****       132.0000 123.7500 144.5000 Du        
  27087 ****       132.0000 123.7500 144.7500 Du        
  27088 ****       132.0000 123.7500 145.0000 Du        
  27089 ****       132.0000 123.7500 145.2500 Du        
  27090 ****       132.0000 123.7500 145.5000 Du        
  27091 ****       132.0000 123.7500 145.7500 Du        
  27092 ****       132.0000 124.0000 144.0000 Du        
  27093 ****       132.0000 124.0000 144.2500 Du        
  27094 ****       132.0000 124.0000 144.5000 Du        
  27095 ****       132.0000 124.0000 144.7500 Du        
  27096 ****       132.0000 124.0000 145.0000 Du        
  27097 ****       132.0000 124.0000 145.2500 Du        
  27098 ****       132.0000 124.0000 145.5000 Du        
  27099 ****       132.0000 124.0000 145.7500 Du        
  27100 ****       132.0000 124.2500 144.0000 Du        
  27101 ****       132.0000 124.2500 144.2500 Du        
  27102 ****       132.0000 124.2500 144.5000 Du        
  27103 ****       132.0000 124.2500 144.7500 Du        
  27104 ****       132.0000 124.2500 145.0000 Du        
  27105 ****       132.0000 124.2500 145.2500 Du        
  27106 ****       132.0000 124.2500 145.5000 Du        
  27107 ****       132.0000 124.2500 145.7500 Du        
  27108 ****       132.0000 124.2500 146.0000 Du        
  27109 ****       132.0000 124.5000 144.2500 Du        
  27110 ****       132.0000 124.5000 144.5000 Du        
  27111 ****       132.0000 124.5000 144.7500 Du        
  27112 ****       132.0000 124.5000 145.0000 Du        
  27113 ****       132.0000 124.5000 145.2500 Du        
  27114 ****       132.0000 124.5000 145.7500 Du        
  27115 ****       132.0000 124.5000 146.0000 Du        
  27116 ****       132.0000 124.7500 144.2500 Du        
  27117 ****       132.0000 124.7500 144.5000 Du        
  27118 ****       132.0000 124.7500 144.7500 Du        
  27119 ****       132.0000 124.7500 145.0000 Du        
  27120 ****       132.0000 124.7500 145.2500 Du        
  27121 ****       132.0000 124.7500 145.7500 Du        
  27122 ****       132.0000 124.7500 146.0000 Du        
  27123 ****       132.0000 124.7500 146.2500 Du        
  27124 ****       132.0000 124.7500 146.5000 Du        
  27125 ****       132.0000 124.7500 146.7500 Du        
  27126 ****       132.0000 125.0000 144.5000 Du        
  27127 ****       132.0000 125.0000 144.7500 Du        
  27128 ****       132.0000 125.0000 145.0000 Du        
  27129 ****       132.0000 125.0000 145.2500 Du        
  27130 ****       132.0000 125.0000 146.2500 Du        
  27131 ****       132.0000 125.0000 146.5000 Du        
  27132 ****       132.0000 125.0000 146.7500 Du        
  27133 ****       132.0000 125.0000 147.0000 Du        
  27134 ****       132.0000 125.2500 144.7500 Du        
  27135 ****       132.0000 125.2500 145.0000 Du        
  27136 ****       132.0000 125.2500 145.2500 Du        
  27137 ****       132.0000 125.2500 146.2500 Du        
  27138 ****       132.0000 125.5000 145.0000 Du        
  27139 ****       132.0000 126.2500 144.2500 Du        
  27140 ****       132.0000 126.2500 165.7500 Du        
  27141 ****       132.0000 126.2500 166.0000 Du        
  27142 ****       132.0000 126.2500 166.2500 Du        
  27143 ****       132.0000 126.2500 166.5000 Du        
  27144 ****       132.0000 126.2500 166.7500 Du        
  27145 ****       132.0000 126.2500 167.0000 Du        
  27146 ****       132.0000 126.5000 165.5000 Du        
  27147 ****       132.0000 126.5000 165.7500 Du        
  27148 ****       132.0000 126.5000 166.0000 Du        
  27149 ****       132.0000 126.5000 166.2500 Du        
  27150 ****       132.0000 126.5000 166.5000 Du        
  27151 ****       132.0000 126.5000 166.7500 Du        
  27152 ****       132.0000 126.5000 167.0000 Du        
  27153 ****       132.0000 126.5000 167.2500 Du        
  27154 ****       132.0000 126.7500 144.0000 Du        
  27155 ****       132.0000 126.7500 144.2500 Du        
  27156 ****       132.0000 126.7500 165.5000 Du        
  27157 ****       132.0000 126.7500 165.7500 Du        
  27158 ****       132.0000 126.7500 166.0000 Du        
  27159 ****       132.0000 126.7500 166.2500 Du        
  27160 ****       132.0000 126.7500 166.5000 Du        
  27161 ****       132.0000 126.7500 166.7500 Du        
  27162 ****       132.0000 126.7500 167.0000 Du        
  27163 ****       132.0000 127.0000 143.7500 Du        
  27164 ****       132.0000 127.0000 144.0000 Du        
  27165 ****       132.0000 127.0000 144.2500 Du        
  27166 ****       132.0000 127.0000 165.2500 Du        
  27167 ****       132.0000 127.0000 165.5000 Du        
  27168 ****       132.0000 127.0000 165.7500 Du        
  27169 ****       132.0000 127.0000 166.0000 Du        
  27170 ****       132.0000 127.0000 166.2500 Du        
  27171 ****       132.0000 127.0000 166.5000 Du        
  27172 ****       132.0000 127.0000 166.7500 Du        
  27173 ****       132.0000 127.0000 167.0000 Du        
  27174 ****       132.0000 127.2500 143.7500 Du        
  27175 ****       132.0000 127.2500 144.0000 Du        
  27176 ****       132.0000 127.2500 144.2500 Du        
  27177 ****       132.0000 127.2500 165.2500 Du        
  27178 ****       132.0000 127.2500 165.5000 Du        
  27179 ****       132.0000 127.2500 165.7500 Du        
  27180 ****       132.0000 127.2500 166.0000 Du        
  27181 ****       132.0000 127.2500 166.2500 Du        
  27182 ****       132.0000 127.2500 166.5000 Du        
  27183 ****       132.0000 127.2500 166.7500 Du        
  27184 ****       132.0000 127.5000 143.7500 Du        
  27185 ****       132.0000 127.5000 144.0000 Du        
  27186 ****       132.0000 127.5000 144.2500 Du        
  27187 ****       132.0000 127.5000 165.0000 Du        
  27188 ****       132.0000 127.5000 165.2500 Du        
  27189 ****       132.0000 127.5000 165.5000 Du        
  27190 ****       132.0000 127.5000 165.7500 Du        
  27191 ****       132.0000 127.5000 166.0000 Du        
  27192 ****       132.0000 127.5000 166.2500 Du        
  27193 ****       132.0000 127.5000 166.5000 Du        
  27194 ****       132.0000 127.7500 143.2500 Du        
  27195 ****       132.0000 127.7500 143.5000 Du        
  27196 ****       132.0000 127.7500 143.7500 Du        
  27197 ****       132.0000 127.7500 144.0000 Du        
  27198 ****       132.0000 127.7500 144.2500 Du        
  27199 ****       132.0000 127.7500 165.0000 Du        
  27200 ****       132.0000 127.7500 165.2500 Du        
  27201 ****       132.0000 127.7500 165.5000 Du        
  27202 ****       132.0000 127.7500 165.7500 Du        
  27203 ****       132.0000 127.7500 166.0000 Du        
  27204 ****       132.0000 127.7500 166.2500 Du        
  27205 ****       132.0000 127.7500 166.5000 Du        
  27206 ****       132.0000 128.0000 143.2500 Du        
  27207 ****       132.0000 128.0000 143.5000 Du        
  27208 ****       132.0000 128.0000 143.7500 Du        
  27209 ****       132.0000 128.0000 144.0000 Du        
  27210 ****       132.0000 128.0000 144.2500 Du        
  27211 ****       132.0000 128.0000 165.0000 Du        
  27212 ****       132.0000 128.0000 165.2500 Du        
  27213 ****       132.0000 128.0000 165.5000 Du        
  27214 ****       132.0000 128.0000 165.7500 Du        
  27215 ****       132.0000 128.0000 166.0000 Du        
  27216 ****       132.0000 128.0000 166.2500 Du        
  27217 ****       132.0000 128.0000 166.5000 Du        
  27218 ****       132.0000 128.2500 144.0000 Du        
  27219 ****       132.0000 128.2500 165.2500 Du        
  27220 ****       132.0000 128.2500 165.5000 Du        
  27221 ****       132.0000 128.2500 165.7500 Du        
  27222 ****       132.0000 128.2500 166.0000 Du        
  27223 ****       132.0000 128.2500 166.2500 Du        
  27224 ****       132.0000 128.2500 166.5000 Du        
  27225 ****       132.0000 128.5000 165.7500 Du        
  27226 ****       132.0000 128.5000 166.0000 Du        
  27227 ****       132.0000 128.5000 166.2500 Du        
  27228 ****       132.0000 128.5000 166.5000 Du        
  27229 ****       132.0000 128.7500 166.2500 Du        
  27230 ****       132.0000 128.7500 166.5000 Du        
  27231 ****       132.0000 129.7500 154.7500 Du        
  27232 ****       132.0000 129.7500 155.0000 Du        
  27233 ****       132.0000 130.0000 154.5000 Du        
  27234 ****       132.0000 130.0000 154.7500 Du        
  27235 ****       132.0000 130.0000 155.0000 Du        
  27236 ****       132.0000 130.0000 167.0000 Du        
  27237 ****       132.0000 130.0000 167.2500 Du        
  27238 ****       132.0000 130.2500 154.5000 Du        
  27239 ****       132.0000 130.2500 154.7500 Du        
  27240 ****       132.0000 130.2500 155.0000 Du        
  27241 ****       132.0000 130.2500 167.0000 Du        
  27242 ****       132.0000 130.2500 167.2500 Du        
  27243 ****       132.0000 130.2500 167.5000 Du        
  27244 ****       132.0000 130.2500 167.7500 Du        
  27245 ****       132.0000 130.5000 167.0000 Du        
  27246 ****       132.0000 130.5000 167.2500 Du        
  27247 ****       132.0000 130.5000 167.5000 Du        
  27248 ****       132.0000 130.5000 167.7500 Du        
  27249 ****       132.0000 130.5000 168.0000 Du        
  27250 ****       132.0000 130.7500 167.0000 Du        
  27251 ****       132.0000 130.7500 167.2500 Du        
  27252 ****       132.0000 130.7500 167.5000 Du        
  27253 ****       132.0000 130.7500 167.7500 Du        
  27254 ****       132.0000 130.7500 168.0000 Du        
  27255 ****       132.0000 130.7500 168.2500 Du        
  27256 ****       132.0000 131.0000 167.0000 Du        
  27257 ****       132.0000 131.0000 167.2500 Du        
  27258 ****       132.0000 131.0000 167.5000 Du        
  27259 ****       132.0000 131.0000 167.7500 Du        
  27260 ****       132.0000 131.0000 168.0000 Du        
  27261 ****       132.0000 131.0000 168.2500 Du        
  27262 ****       132.0000 131.2500 167.0000 Du        
  27263 ****       132.0000 131.2500 167.2500 Du        
  27264 ****       132.0000 131.2500 167.5000 Du        
  27265 ****       132.0000 131.2500 167.7500 Du        
  27266 ****       132.0000 131.2500 168.0000 Du        
  27267 ****       132.0000 131.2500 168.2500 Du        
  27268 ****       132.0000 132.7500 138.0000 Du        
  27269 ****       132.0000 133.0000 138.2500 Du        
  27270 ****       132.0000 133.7500 155.2500 Du        
  27271 ****       132.0000 133.7500 155.5000 Du        
  27272 ****       132.0000 133.7500 155.7500 Du        
  27273 ****       132.0000 133.7500 156.0000 Du        
  27274 ****       132.0000 134.0000 155.2500 Du        
  27275 ****       132.0000 134.0000 155.5000 Du        
  27276 ****       132.0000 134.0000 155.7500 Du        
  27277 ****       132.0000 134.0000 156.0000 Du        
  27278 ****       132.0000 134.0000 156.2500 Du        
  27279 ****       132.0000 134.2500 155.2500 Du        
  27280 ****       132.0000 134.2500 155.5000 Du        
  27281 ****       132.0000 134.2500 155.7500 Du        
  27282 ****       132.0000 134.2500 156.0000 Du        
  27283 ****       132.0000 134.2500 156.2500 Du        
  27284 ****       132.0000 134.2500 156.5000 Du        
  27285 ****       132.0000 134.5000 155.5000 Du        
  27286 ****       132.0000 134.5000 155.7500 Du        
  27287 ****       132.0000 134.5000 156.0000 Du        
  27288 ****       132.0000 134.5000 156.2500 Du        
  27289 ****       132.0000 134.5000 156.5000 Du        
  27290 ****       132.0000 134.5000 156.7500 Du        
  27291 ****       132.0000 134.7500 155.7500 Du        
  27292 ****       132.0000 134.7500 156.0000 Du        
  27293 ****       132.0000 134.7500 156.2500 Du        
  27294 ****       132.0000 134.7500 156.5000 Du        
  27295 ****       132.0000 134.7500 156.7500 Du        
  27296 ****       132.0000 135.0000 156.0000 Du        
  27297 ****       132.0000 135.0000 156.2500 Du        
  27298 ****       132.0000 136.0000  96.2500 Du        
  27299 ****       132.0000 136.0000  96.5000 Du        
  27300 ****       132.0000 136.0000  96.7500 Du        
  27301 ****       132.0000 136.2500  96.2500 Du        
  27302 ****       132.0000 136.2500  96.5000 Du        
  27303 ****       132.0000 136.2500  96.7500 Du        
  27304 ****       132.0000 136.2500  97.0000 Du        
  27305 ****       132.0000 136.5000  96.0000 Du        
  27306 ****       132.0000 136.5000  96.2500 Du        
  27307 ****       132.0000 136.5000  96.5000 Du        
  27308 ****       132.0000 136.5000  96.7500 Du        
  27309 ****       132.0000 136.5000  97.0000 Du        
  27310 ****       132.0000 136.7500  96.0000 Du        
  27311 ****       132.0000 136.7500  96.2500 Du        
  27312 ****       132.0000 136.7500  96.5000 Du        
  27313 ****       132.0000 136.7500  96.7500 Du        
  27314 ****       132.0000 136.7500  97.0000 Du        
  27315 ****       132.0000 137.0000  95.7500 Du        
  27316 ****       132.0000 137.0000  96.0000 Du        
  27317 ****       132.0000 137.0000  96.2500 Du        
  27318 ****       132.0000 137.0000  96.5000 Du        
  27319 ****       132.0000 137.0000  96.7500 Du        
  27320 ****       132.0000 137.0000  97.0000 Du        
  27321 ****       132.0000 137.2500  95.5000 Du        
  27322 ****       132.0000 137.2500  95.7500 Du        
  27323 ****       132.0000 137.2500  96.0000 Du        
  27324 ****       132.0000 137.2500  96.2500 Du        
  27325 ****       132.0000 137.2500  96.5000 Du        
  27326 ****       132.0000 137.2500  96.7500 Du        
  27327 ****       132.0000 137.2500  97.0000 Du        
  27328 ****       132.0000 137.5000  95.5000 Du        
  27329 ****       132.0000 137.5000  95.7500 Du        
  27330 ****       132.0000 137.5000  96.0000 Du        
  27331 ****       132.0000 137.5000  96.2500 Du        
  27332 ****       132.0000 137.5000  96.5000 Du        
  27333 ****       132.0000 137.5000  96.7500 Du        
  27334 ****       132.0000 137.5000  97.0000 Du        
  27335 ****       132.0000 137.7500  95.5000 Du        
  27336 ****       132.0000 137.7500  95.7500 Du        
  27337 ****       132.0000 137.7500  96.0000 Du        
  27338 ****       132.0000 137.7500  96.2500 Du        
  27339 ****       132.0000 137.7500  96.5000 Du        
  27340 ****       132.0000 137.7500  96.7500 Du        
  27341 ****       132.0000 137.7500  97.0000 Du        
  27342 ****       132.0000 137.7500 142.0000 Du        
  27343 ****       132.0000 138.0000  95.2500 Du        
  27344 ****       132.0000 138.0000  95.5000 Du        
  27345 ****       132.0000 138.0000  95.7500 Du        
  27346 ****       132.0000 138.0000  96.0000 Du        
  27347 ****       132.0000 138.0000  96.2500 Du        
  27348 ****       132.0000 138.0000  96.5000 Du        
  27349 ****       132.0000 138.0000  96.7500 Du        
  27350 ****       132.0000 138.0000  97.0000 Du        
  27351 ****       132.0000 138.0000 142.0000 Du        
  27352 ****       132.0000 138.0000 142.2500 Du        
  27353 ****       132.0000 138.2500  95.5000 Du        
  27354 ****       132.0000 138.2500  95.7500 Du        
  27355 ****       132.0000 138.2500  96.0000 Du        
  27356 ****       132.0000 138.2500  96.2500 Du        
  27357 ****       132.0000 138.2500  96.5000 Du        
  27358 ****       132.0000 138.2500  96.7500 Du        
  27359 ****       132.0000 138.2500  97.0000 Du        
  27360 ****       132.0000 138.2500 142.0000 Du        
  27361 ****       132.0000 138.2500 142.2500 Du        
  27362 ****       132.0000 138.5000 142.0000 Du        
  27363 ****       132.0000 138.5000 142.2500 Du        
  27364 ****       132.0000 139.0000 104.2500 Du        
  27365 ****       132.0000 139.0000 104.5000 Du        
  27366 ****       132.0000 139.0000 104.7500 Du        
  27367 ****       132.0000 139.0000 107.0000 Du        
  27368 ****       132.0000 139.0000 107.2500 Du        
  27369 ****       132.0000 139.0000 107.5000 Du        
  27370 ****       132.0000 139.2500 104.0000 Du        
  27371 ****       132.0000 139.2500 104.2500 Du        
  27372 ****       132.0000 139.2500 104.5000 Du        
  27373 ****       132.0000 139.2500 104.7500 Du        
  27374 ****       132.0000 139.2500 105.0000 Du        
  27375 ****       132.0000 139.2500 105.2500 Du        
  27376 ****       132.0000 139.2500 105.5000 Du        
  27377 ****       132.0000 139.2500 105.7500 Du        
  27378 ****       132.0000 139.2500 106.0000 Du        
  27379 ****       132.0000 139.2500 106.2500 Du        
  27380 ****       132.0000 139.2500 106.5000 Du        
  27381 ****       132.0000 139.2500 106.7500 Du        
  27382 ****       132.0000 139.2500 107.0000 Du        
  27383 ****       132.0000 139.2500 107.2500 Du        
  27384 ****       132.0000 139.5000 104.0000 Du        
  27385 ****       132.0000 139.5000 104.2500 Du        
  27386 ****       132.0000 139.5000 104.5000 Du        
  27387 ****       132.0000 139.5000 104.7500 Du        
  27388 ****       132.0000 139.5000 105.0000 Du        
  27389 ****       132.0000 139.5000 105.2500 Du        
  27390 ****       132.0000 139.5000 105.5000 Du        
  27391 ****       132.0000 139.5000 105.7500 Du        
  27392 ****       132.0000 139.5000 106.0000 Du        
  27393 ****       132.0000 139.5000 106.2500 Du        
  27394 ****       132.0000 139.7500 103.7500 Du        
  27395 ****       132.0000 139.7500 104.0000 Du        
  27396 ****       132.0000 139.7500 104.2500 Du        
  27397 ****       132.0000 139.7500 104.5000 Du        
  27398 ****       132.0000 139.7500 104.7500 Du        
  27399 ****       132.0000 139.7500 105.0000 Du        
  27400 ****       132.0000 139.7500 105.2500 Du        
  27401 ****       132.0000 139.7500 105.5000 Du        
  27402 ****       132.0000 139.7500 105.7500 Du        
  27403 ****       132.0000 140.0000 103.5000 Du        
  27404 ****       132.0000 140.0000 103.7500 Du        
  27405 ****       132.0000 140.0000 104.0000 Du        
  27406 ****       132.0000 140.0000 104.2500 Du        
  27407 ****       132.0000 140.0000 104.5000 Du        
  27408 ****       132.0000 140.0000 104.7500 Du        
  27409 ****       132.0000 140.0000 105.0000 Du        
  27410 ****       132.0000 140.0000 105.2500 Du        
  27411 ****       132.0000 140.2500 103.7500 Du        
  27412 ****       132.0000 140.2500 104.0000 Du        
  27413 ****       132.0000 140.2500 104.2500 Du        
  27414 ****       132.0000 140.2500 104.5000 Du        
  27415 ****       132.0000 140.2500 104.7500 Du        
  27416 ****       132.0000 140.5000 104.0000 Du        
  27417 ****       132.0000 140.5000 104.2500 Du        
  27418 ****       132.0000 141.7500 142.0000 Du        
  27419 ****       132.0000 142.0000  99.5000 Du        
  27420 ****       132.0000 142.0000  99.7500 Du        
  27421 ****       132.0000 142.0000 100.0000 Du        
  27422 ****       132.0000 142.0000 141.7500 Du        
  27423 ****       132.0000 142.2500  99.0000 Du        
  27424 ****       132.0000 142.2500  99.2500 Du        
  27425 ****       132.0000 142.2500  99.5000 Du        
  27426 ****       132.0000 142.2500  99.7500 Du        
  27427 ****       132.0000 142.2500 100.0000 Du        
  27428 ****       132.0000 142.2500 100.2500 Du        
  27429 ****       132.0000 142.2500 141.5000 Du        
  27430 ****       132.0000 142.2500 141.7500 Du        
  27431 ****       132.0000 142.5000  99.5000 Du        
  27432 ****       132.0000 142.5000  99.7500 Du        
  27433 ****       132.0000 142.5000 100.0000 Du        
  27434 ****       132.0000 142.5000 100.2500 Du        
  27435 ****       132.0000 142.5000 100.5000 Du        
  27436 ****       132.0000 142.7500  99.2500 Du        
  27437 ****       132.0000 142.7500  99.5000 Du        
  27438 ****       132.0000 142.7500  99.7500 Du        
  27439 ****       132.0000 142.7500 100.0000 Du        
  27440 ****       132.0000 142.7500 100.2500 Du        
  27441 ****       132.0000 143.0000  99.2500 Du        
  27442 ****       132.0000 143.0000  99.5000 Du        
  27443 ****       132.0000 143.0000  99.7500 Du        
  27444 ****       132.0000 143.2500  99.2500 Du        
  27445 ****       132.0000 143.2500  99.5000 Du        
  27446 ****       132.0000 143.2500  99.7500 Du        
  27447 ****       132.2500 121.0000 144.0000 Du        
  27448 ****       132.2500 121.0000 144.2500 Du        
  27449 ****       132.2500 121.0000 144.5000 Du        
  27450 ****       132.2500 121.0000 144.7500 Du        
  27451 ****       132.2500 121.0000 145.0000 Du        
  27452 ****       132.2500 121.0000 145.2500 Du        
  27453 ****       132.2500 121.0000 145.5000 Du        
  27454 ****       132.2500 121.2500 143.7500 Du        
  27455 ****       132.2500 121.2500 144.0000 Du        
  27456 ****       132.2500 121.2500 144.2500 Du        
  27457 ****       132.2500 121.2500 144.5000 Du        
  27458 ****       132.2500 121.2500 144.7500 Du        
  27459 ****       132.2500 121.2500 145.0000 Du        
  27460 ****       132.2500 121.2500 145.2500 Du        
  27461 ****       132.2500 121.2500 145.5000 Du        
  27462 ****       132.2500 121.5000 143.5000 Du        
  27463 ****       132.2500 121.5000 143.7500 Du        
  27464 ****       132.2500 121.5000 144.0000 Du        
  27465 ****       132.2500 121.5000 144.2500 Du        
  27466 ****       132.2500 121.5000 144.5000 Du        
  27467 ****       132.2500 121.5000 144.7500 Du        
  27468 ****       132.2500 121.5000 145.0000 Du        
  27469 ****       132.2500 121.5000 145.2500 Du        
  27470 ****       132.2500 121.5000 145.5000 Du        
  27471 ****       132.2500 121.7500 143.2500 Du        
  27472 ****       132.2500 121.7500 143.5000 Du        
  27473 ****       132.2500 121.7500 143.7500 Du        
  27474 ****       132.2500 121.7500 144.0000 Du        
  27475 ****       132.2500 121.7500 144.2500 Du        
  27476 ****       132.2500 121.7500 144.5000 Du        
  27477 ****       132.2500 121.7500 144.7500 Du        
  27478 ****       132.2500 121.7500 145.0000 Du        
  27479 ****       132.2500 121.7500 145.2500 Du        
  27480 ****       132.2500 121.7500 145.5000 Du        
  27481 ****       132.2500 122.0000 143.2500 Du        
  27482 ****       132.2500 122.0000 143.5000 Du        
  27483 ****       132.2500 122.0000 143.7500 Du        
  27484 ****       132.2500 122.0000 144.0000 Du        
  27485 ****       132.2500 122.0000 144.2500 Du        
  27486 ****       132.2500 122.0000 144.5000 Du        
  27487 ****       132.2500 122.0000 144.7500 Du        
  27488 ****       132.2500 122.0000 145.0000 Du        
  27489 ****       132.2500 122.0000 145.2500 Du        
  27490 ****       132.2500 122.2500 143.0000 Du        
  27491 ****       132.2500 122.2500 143.2500 Du        
  27492 ****       132.2500 122.2500 143.5000 Du        
  27493 ****       132.2500 122.2500 143.7500 Du        
  27494 ****       132.2500 122.2500 144.0000 Du        
  27495 ****       132.2500 122.2500 144.2500 Du        
  27496 ****       132.2500 122.2500 144.5000 Du        
  27497 ****       132.2500 122.2500 144.7500 Du        
  27498 ****       132.2500 122.2500 145.0000 Du        
  27499 ****       132.2500 122.2500 145.2500 Du        
  27500 ****       132.2500 122.5000 143.0000 Du        
  27501 ****       132.2500 122.5000 143.2500 Du        
  27502 ****       132.2500 122.5000 143.5000 Du        
  27503 ****       132.2500 122.5000 143.7500 Du        
  27504 ****       132.2500 122.5000 144.0000 Du        
  27505 ****       132.2500 122.5000 144.2500 Du        
  27506 ****       132.2500 122.5000 144.5000 Du        
  27507 ****       132.2500 122.5000 144.7500 Du        
  27508 ****       132.2500 122.5000 145.0000 Du        
  27509 ****       132.2500 122.5000 145.2500 Du        
  27510 ****       132.2500 122.7500 143.2500 Du        
  27511 ****       132.2500 122.7500 143.5000 Du        
  27512 ****       132.2500 122.7500 143.7500 Du        
  27513 ****       132.2500 122.7500 144.0000 Du        
  27514 ****       132.2500 122.7500 144.2500 Du        
  27515 ****       132.2500 122.7500 144.5000 Du        
  27516 ****       132.2500 122.7500 144.7500 Du        
  27517 ****       132.2500 122.7500 145.0000 Du        
  27518 ****       132.2500 122.7500 145.2500 Du        
  27519 ****       132.2500 122.7500 145.5000 Du        
  27520 ****       132.2500 123.0000 143.2500 Du        
  27521 ****       132.2500 123.0000 143.5000 Du        
  27522 ****       132.2500 123.0000 143.7500 Du        
  27523 ****       132.2500 123.0000 144.0000 Du        
  27524 ****       132.2500 123.0000 144.2500 Du        
  27525 ****       132.2500 123.0000 144.5000 Du        
  27526 ****       132.2500 123.0000 144.7500 Du        
  27527 ****       132.2500 123.0000 145.0000 Du        
  27528 ****       132.2500 123.0000 145.2500 Du        
  27529 ****       132.2500 123.0000 145.5000 Du        
  27530 ****       132.2500 123.2500 143.5000 Du        
  27531 ****       132.2500 123.2500 143.7500 Du        
  27532 ****       132.2500 123.2500 144.0000 Du        
  27533 ****       132.2500 123.2500 144.2500 Du        
  27534 ****       132.2500 123.2500 144.5000 Du        
  27535 ****       132.2500 123.2500 144.7500 Du        
  27536 ****       132.2500 123.2500 145.0000 Du        
  27537 ****       132.2500 123.2500 145.2500 Du        
  27538 ****       132.2500 123.2500 145.5000 Du        
  27539 ****       132.2500 123.5000 143.7500 Du        
  27540 ****       132.2500 123.5000 144.0000 Du        
  27541 ****       132.2500 123.5000 144.2500 Du        
  27542 ****       132.2500 123.5000 144.5000 Du        
  27543 ****       132.2500 123.5000 144.7500 Du        
  27544 ****       132.2500 123.5000 145.0000 Du        
  27545 ****       132.2500 123.5000 145.2500 Du        
  27546 ****       132.2500 123.5000 145.5000 Du        
  27547 ****       132.2500 123.7500 144.0000 Du        
  27548 ****       132.2500 123.7500 144.2500 Du        
  27549 ****       132.2500 123.7500 144.5000 Du        
  27550 ****       132.2500 123.7500 144.7500 Du        
  27551 ****       132.2500 123.7500 145.0000 Du        
  27552 ****       132.2500 123.7500 145.2500 Du        
  27553 ****       132.2500 123.7500 145.5000 Du        
  27554 ****       132.2500 123.7500 145.7500 Du        
  27555 ****       132.2500 124.0000 144.0000 Du        
  27556 ****       132.2500 124.0000 144.2500 Du        
  27557 ****       132.2500 124.0000 144.5000 Du        
  27558 ****       132.2500 124.0000 144.7500 Du        
  27559 ****       132.2500 124.0000 145.0000 Du        
  27560 ****       132.2500 124.0000 145.2500 Du        
  27561 ****       132.2500 124.0000 145.5000 Du        
  27562 ****       132.2500 124.0000 145.7500 Du        
  27563 ****       132.2500 124.2500 144.0000 Du        
  27564 ****       132.2500 124.2500 144.2500 Du        
  27565 ****       132.2500 124.2500 144.5000 Du        
  27566 ****       132.2500 124.2500 144.7500 Du        
  27567 ****       132.2500 124.2500 145.0000 Du        
  27568 ****       132.2500 124.2500 145.2500 Du        
  27569 ****       132.2500 124.2500 145.5000 Du        
  27570 ****       132.2500 124.2500 145.7500 Du        
  27571 ****       132.2500 124.5000 144.2500 Du        
  27572 ****       132.2500 124.5000 144.5000 Du        
  27573 ****       132.2500 124.5000 144.7500 Du        
  27574 ****       132.2500 124.5000 145.0000 Du        
  27575 ****       132.2500 124.7500 144.7500 Du        
  27576 ****       132.2500 124.7500 145.0000 Du        
  27577 ****       132.2500 126.5000 165.7500 Du        
  27578 ****       132.2500 126.5000 166.0000 Du        
  27579 ****       132.2500 126.5000 166.2500 Du        
  27580 ****       132.2500 126.5000 166.5000 Du        
  27581 ****       132.2500 126.5000 166.7500 Du        
  27582 ****       132.2500 126.7500 165.5000 Du        
  27583 ****       132.2500 126.7500 165.7500 Du        
  27584 ****       132.2500 126.7500 166.0000 Du        
  27585 ****       132.2500 126.7500 166.2500 Du        
  27586 ****       132.2500 126.7500 166.5000 Du        
  27587 ****       132.2500 126.7500 166.7500 Du        
  27588 ****       132.2500 127.0000 143.7500 Du        
  27589 ****       132.2500 127.0000 144.0000 Du        
  27590 ****       132.2500 127.0000 144.2500 Du        
  27591 ****       132.2500 127.0000 165.2500 Du        
  27592 ****       132.2500 127.0000 165.5000 Du        
  27593 ****       132.2500 127.0000 165.7500 Du        
  27594 ****       132.2500 127.0000 166.0000 Du        
  27595 ****       132.2500 127.0000 166.2500 Du        
  27596 ****       132.2500 127.0000 166.5000 Du        
  27597 ****       132.2500 127.2500 143.5000 Du        
  27598 ****       132.2500 127.2500 143.7500 Du        
  27599 ****       132.2500 127.2500 144.0000 Du        
  27600 ****       132.2500 127.2500 144.2500 Du        
  27601 ****       132.2500 127.2500 165.2500 Du        
  27602 ****       132.2500 127.2500 165.5000 Du        
  27603 ****       132.2500 127.2500 165.7500 Du        
  27604 ****       132.2500 127.2500 166.0000 Du        
  27605 ****       132.2500 127.2500 166.2500 Du        
  27606 ****       132.2500 127.2500 166.5000 Du        
  27607 ****       132.2500 127.5000 143.5000 Du        
  27608 ****       132.2500 127.5000 143.7500 Du        
  27609 ****       132.2500 127.5000 144.0000 Du        
  27610 ****       132.2500 127.5000 144.2500 Du        
  27611 ****       132.2500 127.5000 165.0000 Du        
  27612 ****       132.2500 127.5000 165.2500 Du        
  27613 ****       132.2500 127.5000 165.5000 Du        
  27614 ****       132.2500 127.5000 165.7500 Du        
  27615 ****       132.2500 127.5000 166.0000 Du        
  27616 ****       132.2500 127.5000 166.2500 Du        
  27617 ****       132.2500 127.5000 166.5000 Du        
  27618 ****       132.2500 127.7500 143.2500 Du        
  27619 ****       132.2500 127.7500 143.5000 Du        
  27620 ****       132.2500 127.7500 143.7500 Du        
  27621 ****       132.2500 127.7500 144.0000 Du        
  27622 ****       132.2500 127.7500 144.2500 Du        
  27623 ****       132.2500 127.7500 165.0000 Du        
  27624 ****       132.2500 127.7500 165.2500 Du        
  27625 ****       132.2500 127.7500 165.5000 Du        
  27626 ****       132.2500 127.7500 165.7500 Du        
  27627 ****       132.2500 127.7500 166.0000 Du        
  27628 ****       132.2500 127.7500 166.2500 Du        
  27629 ****       132.2500 128.0000 143.5000 Du        
  27630 ****       132.2500 128.0000 143.7500 Du        
  27631 ****       132.2500 128.0000 144.0000 Du        
  27632 ****       132.2500 128.0000 144.2500 Du        
  27633 ****       132.2500 128.0000 165.0000 Du        
  27634 ****       132.2500 128.0000 165.2500 Du        
  27635 ****       132.2500 128.0000 165.5000 Du        
  27636 ****       132.2500 128.0000 165.7500 Du        
  27637 ****       132.2500 128.0000 166.0000 Du        
  27638 ****       132.2500 128.0000 166.2500 Du        
  27639 ****       132.2500 128.2500 144.0000 Du        
  27640 ****       132.2500 128.2500 144.2500 Du        
  27641 ****       132.2500 128.2500 165.2500 Du        
  27642 ****       132.2500 128.2500 165.5000 Du        
  27643 ****       132.2500 128.2500 165.7500 Du        
  27644 ****       132.2500 128.2500 166.0000 Du        
  27645 ****       132.2500 128.2500 166.2500 Du        
  27646 ****       132.2500 128.5000 165.5000 Du        
  27647 ****       132.2500 128.5000 165.7500 Du        
  27648 ****       132.2500 128.5000 166.0000 Du        
  27649 ****       132.2500 128.5000 166.2500 Du        
  27650 ****       132.2500 128.7500 166.0000 Du        
  27651 ****       132.2500 130.7500 167.2500 Du        
  27652 ****       132.2500 130.7500 167.5000 Du        
  27653 ****       132.2500 130.7500 167.7500 Du        
  27654 ****       132.2500 131.0000 167.2500 Du        
  27655 ****       132.2500 131.0000 167.5000 Du        
  27656 ****       132.2500 131.0000 167.7500 Du        
  27657 ****       132.2500 131.0000 168.0000 Du        
  27658 ****       132.2500 133.7500 155.7500 Du        
  27659 ****       132.2500 133.7500 156.0000 Du        
  27660 ****       132.2500 134.0000 155.5000 Du        
  27661 ****       132.2500 134.0000 155.7500 Du        
  27662 ****       132.2500 134.0000 156.0000 Du        
  27663 ****       132.2500 134.0000 156.2500 Du        
  27664 ****       132.2500 134.2500 155.5000 Du        
  27665 ****       132.2500 134.2500 155.7500 Du        
  27666 ****       132.2500 134.2500 156.0000 Du        
  27667 ****       132.2500 134.2500 156.2500 Du        
  27668 ****       132.2500 134.2500 156.5000 Du        
  27669 ****       132.2500 134.5000 155.5000 Du        
  27670 ****       132.2500 134.5000 155.7500 Du        
  27671 ****       132.2500 134.5000 156.0000 Du        
  27672 ****       132.2500 134.5000 156.2500 Du        
  27673 ****       132.2500 134.5000 156.5000 Du        
  27674 ****       132.2500 134.5000 156.7500 Du        
  27675 ****       132.2500 134.7500 155.7500 Du        
  27676 ****       132.2500 134.7500 156.0000 Du        
  27677 ****       132.2500 134.7500 156.2500 Du        
  27678 ****       132.2500 134.7500 156.5000 Du        
  27679 ****       132.2500 134.7500 156.7500 Du        
  27680 ****       132.2500 135.0000 156.0000 Du        
  27681 ****       132.2500 135.0000 156.2500 Du        
  27682 ****       132.2500 136.0000  96.2500 Du        
  27683 ****       132.2500 136.0000  96.5000 Du        
  27684 ****       132.2500 136.0000  96.7500 Du        
  27685 ****       132.2500 136.0000  97.0000 Du        
  27686 ****       132.2500 136.2500  96.2500 Du        
  27687 ****       132.2500 136.2500  96.5000 Du        
  27688 ****       132.2500 136.2500  96.7500 Du        
  27689 ****       132.2500 136.2500  97.0000 Du        
  27690 ****       132.2500 136.5000  96.2500 Du        
  27691 ****       132.2500 136.5000  96.5000 Du        
  27692 ****       132.2500 136.5000  96.7500 Du        
  27693 ****       132.2500 136.5000  97.0000 Du        
  27694 ****       132.2500 136.7500  96.0000 Du        
  27695 ****       132.2500 136.7500  96.2500 Du        
  27696 ****       132.2500 136.7500  96.5000 Du        
  27697 ****       132.2500 136.7500  96.7500 Du        
  27698 ****       132.2500 136.7500  97.0000 Du        
  27699 ****       132.2500 137.0000  95.7500 Du        
  27700 ****       132.2500 137.0000  96.0000 Du        
  27701 ****       132.2500 137.0000  96.2500 Du        
  27702 ****       132.2500 137.0000  96.5000 Du        
  27703 ****       132.2500 137.0000  96.7500 Du        
  27704 ****       132.2500 137.0000  97.0000 Du        
  27705 ****       132.2500 137.2500  95.7500 Du        
  27706 ****       132.2500 137.2500  96.0000 Du        
  27707 ****       132.2500 137.2500  96.2500 Du        
  27708 ****       132.2500 137.2500  96.5000 Du        
  27709 ****       132.2500 137.2500  96.7500 Du        
  27710 ****       132.2500 137.2500  97.0000 Du        
  27711 ****       132.2500 137.5000  95.5000 Du        
  27712 ****       132.2500 137.5000  95.7500 Du        
  27713 ****       132.2500 137.5000  96.0000 Du        
  27714 ****       132.2500 137.5000  96.2500 Du        
  27715 ****       132.2500 137.5000  96.5000 Du        
  27716 ****       132.2500 137.5000  96.7500 Du        
  27717 ****       132.2500 137.5000  97.0000 Du        
  27718 ****       132.2500 137.5000 142.0000 Du        
  27719 ****       132.2500 137.7500  95.5000 Du        
  27720 ****       132.2500 137.7500  95.7500 Du        
  27721 ****       132.2500 137.7500  96.0000 Du        
  27722 ****       132.2500 137.7500  96.2500 Du        
  27723 ****       132.2500 137.7500  96.5000 Du        
  27724 ****       132.2500 137.7500  96.7500 Du        
  27725 ****       132.2500 137.7500  97.0000 Du        
  27726 ****       132.2500 137.7500 142.0000 Du        
  27727 ****       132.2500 138.0000  89.5000 Du        
  27728 ****       132.2500 138.0000  95.2500 Du        
  27729 ****       132.2500 138.0000  95.5000 Du        
  27730 ****       132.2500 138.0000  95.7500 Du        
  27731 ****       132.2500 138.0000  96.0000 Du        
  27732 ****       132.2500 138.0000  96.2500 Du        
  27733 ****       132.2500 138.0000  96.5000 Du        
  27734 ****       132.2500 138.0000  96.7500 Du        
  27735 ****       132.2500 138.0000  97.0000 Du        
  27736 ****       132.2500 138.0000 142.0000 Du        
  27737 ****       132.2500 138.2500  95.7500 Du        
  27738 ****       132.2500 138.2500  96.0000 Du        
  27739 ****       132.2500 138.2500  96.2500 Du        
  27740 ****       132.2500 138.2500  96.5000 Du        
  27741 ****       132.2500 138.2500  96.7500 Du        
  27742 ****       132.2500 138.2500  97.0000 Du        
  27743 ****       132.2500 138.2500 142.0000 Du        
  27744 ****       132.2500 138.7500 107.2500 Du        
  27745 ****       132.2500 138.7500 107.5000 Du        
  27746 ****       132.2500 138.7500 107.7500 Du        
  27747 ****       132.2500 139.0000 104.0000 Du        
  27748 ****       132.2500 139.0000 104.2500 Du        
  27749 ****       132.2500 139.0000 104.5000 Du        
  27750 ****       132.2500 139.0000 104.7500 Du        
  27751 ****       132.2500 139.0000 105.0000 Du        
  27752 ****       132.2500 139.0000 106.7500 Du        
  27753 ****       132.2500 139.0000 107.0000 Du        
  27754 ****       132.2500 139.0000 107.2500 Du        
  27755 ****       132.2500 139.0000 107.5000 Du        
  27756 ****       132.2500 139.2500 103.7500 Du        
  27757 ****       132.2500 139.2500 104.0000 Du        
  27758 ****       132.2500 139.2500 104.2500 Du        
  27759 ****       132.2500 139.2500 104.5000 Du        
  27760 ****       132.2500 139.2500 104.7500 Du        
  27761 ****       132.2500 139.2500 105.0000 Du        
  27762 ****       132.2500 139.2500 105.2500 Du        
  27763 ****       132.2500 139.2500 105.5000 Du        
  27764 ****       132.2500 139.2500 105.7500 Du        
  27765 ****       132.2500 139.2500 106.0000 Du        
  27766 ****       132.2500 139.2500 106.2500 Du        
  27767 ****       132.2500 139.2500 106.5000 Du        
  27768 ****       132.2500 139.2500 106.7500 Du        
  27769 ****       132.2500 139.2500 107.0000 Du        
  27770 ****       132.2500 139.2500 107.2500 Du        
  27771 ****       132.2500 139.5000 103.7500 Du        
  27772 ****       132.2500 139.5000 104.0000 Du        
  27773 ****       132.2500 139.5000 104.2500 Du        
  27774 ****       132.2500 139.5000 104.5000 Du        
  27775 ****       132.2500 139.5000 104.7500 Du        
  27776 ****       132.2500 139.5000 105.0000 Du        
  27777 ****       132.2500 139.5000 105.2500 Du        
  27778 ****       132.2500 139.5000 105.5000 Du        
  27779 ****       132.2500 139.5000 105.7500 Du        
  27780 ****       132.2500 139.5000 106.0000 Du        
  27781 ****       132.2500 139.5000 106.2500 Du        
  27782 ****       132.2500 139.7500 103.7500 Du        
  27783 ****       132.2500 139.7500 104.0000 Du        
  27784 ****       132.2500 139.7500 104.2500 Du        
  27785 ****       132.2500 139.7500 104.5000 Du        
  27786 ****       132.2500 139.7500 104.7500 Du        
  27787 ****       132.2500 139.7500 105.0000 Du        
  27788 ****       132.2500 139.7500 105.2500 Du        
  27789 ****       132.2500 139.7500 105.5000 Du        
  27790 ****       132.2500 140.0000 103.7500 Du        
  27791 ****       132.2500 140.0000 104.0000 Du        
  27792 ****       132.2500 140.0000 104.2500 Du        
  27793 ****       132.2500 140.0000 104.5000 Du        
  27794 ****       132.2500 140.0000 104.7500 Du        
  27795 ****       132.2500 140.0000 105.0000 Du        
  27796 ****       132.2500 140.2500 104.2500 Du        
  27797 ****       132.2500 141.7500  99.5000 Du        
  27798 ****       132.2500 141.7500  99.7500 Du        
  27799 ****       132.2500 141.7500 100.0000 Du        
  27800 ****       132.2500 142.0000  99.5000 Du        
  27801 ****       132.2500 142.0000  99.7500 Du        
  27802 ****       132.2500 142.0000 100.0000 Du        
  27803 ****       132.2500 142.0000 100.2500 Du        
  27804 ****       132.2500 142.0000 141.5000 Du        
  27805 ****       132.2500 142.0000 141.7500 Du        
  27806 ****       132.2500 142.2500  99.2500 Du        
  27807 ****       132.2500 142.2500  99.5000 Du        
  27808 ****       132.2500 142.2500  99.7500 Du        
  27809 ****       132.2500 142.2500 100.0000 Du        
  27810 ****       132.2500 142.2500 100.2500 Du        
  27811 ****       132.2500 142.2500 141.5000 Du        
  27812 ****       132.2500 142.2500 141.7500 Du        
  27813 ****       132.2500 142.5000  99.5000 Du        
  27814 ****       132.2500 142.5000  99.7500 Du        
  27815 ****       132.2500 142.5000 100.0000 Du        
  27816 ****       132.2500 142.5000 100.2500 Du        
  27817 ****       132.2500 142.7500  99.5000 Du        
  27818 ****       132.2500 142.7500  99.7500 Du        
  27819 ****       132.2500 142.7500 100.0000 Du        
  27820 ****       132.2500 143.0000  99.5000 Du        
  27821 ****       132.2500 143.0000  99.7500 Du        
  27822 ****       132.5000 121.0000 144.2500 Du        
  27823 ****       132.5000 121.0000 144.5000 Du        
  27824 ****       132.5000 121.0000 144.7500 Du        
  27825 ****       132.5000 121.0000 145.0000 Du        
  27826 ****       132.5000 121.0000 145.2500 Du        
  27827 ****       132.5000 121.0000 145.5000 Du        
  27828 ****       132.5000 121.0000 145.7500 Du        
  27829 ****       132.5000 121.2500 144.0000 Du        
  27830 ****       132.5000 121.2500 144.2500 Du        
  27831 ****       132.5000 121.2500 144.5000 Du        
  27832 ****       132.5000 121.2500 144.7500 Du        
  27833 ****       132.5000 121.2500 145.0000 Du        
  27834 ****       132.5000 121.2500 145.2500 Du        
  27835 ****       132.5000 121.2500 145.5000 Du        
  27836 ****       132.5000 121.2500 145.7500 Du        
  27837 ****       132.5000 121.5000 143.7500 Du        
  27838 ****       132.5000 121.5000 144.0000 Du        
  27839 ****       132.5000 121.5000 144.2500 Du        
  27840 ****       132.5000 121.5000 144.5000 Du        
  27841 ****       132.5000 121.5000 144.7500 Du        
  27842 ****       132.5000 121.5000 145.0000 Du        
  27843 ****       132.5000 121.5000 145.2500 Du        
  27844 ****       132.5000 121.5000 145.5000 Du        
  27845 ****       132.5000 121.7500 143.5000 Du        
  27846 ****       132.5000 121.7500 143.7500 Du        
  27847 ****       132.5000 121.7500 144.0000 Du        
  27848 ****       132.5000 121.7500 144.2500 Du        
  27849 ****       132.5000 121.7500 144.5000 Du        
  27850 ****       132.5000 121.7500 144.7500 Du        
  27851 ****       132.5000 121.7500 145.0000 Du        
  27852 ****       132.5000 121.7500 145.2500 Du        
  27853 ****       132.5000 121.7500 145.5000 Du        
  27854 ****       132.5000 122.0000 143.5000 Du        
  27855 ****       132.5000 122.0000 143.7500 Du        
  27856 ****       132.5000 122.0000 144.0000 Du        
  27857 ****       132.5000 122.0000 144.2500 Du        
  27858 ****       132.5000 122.0000 144.5000 Du        
  27859 ****       132.5000 122.0000 144.7500 Du        
  27860 ****       132.5000 122.0000 145.0000 Du        
  27861 ****       132.5000 122.0000 145.2500 Du        
  27862 ****       132.5000 122.0000 145.5000 Du        
  27863 ****       132.5000 122.2500 143.2500 Du        
  27864 ****       132.5000 122.2500 143.5000 Du        
  27865 ****       132.5000 122.2500 143.7500 Du        
  27866 ****       132.5000 122.2500 144.0000 Du        
  27867 ****       132.5000 122.2500 144.2500 Du        
  27868 ****       132.5000 122.2500 144.5000 Du        
  27869 ****       132.5000 122.2500 144.7500 Du        
  27870 ****       132.5000 122.2500 145.0000 Du        
  27871 ****       132.5000 122.2500 145.2500 Du        
  27872 ****       132.5000 122.2500 145.5000 Du        
  27873 ****       132.5000 122.5000 143.2500 Du        
  27874 ****       132.5000 122.5000 143.5000 Du        
  27875 ****       132.5000 122.5000 143.7500 Du        
  27876 ****       132.5000 122.5000 144.0000 Du        
  27877 ****       132.5000 122.5000 144.2500 Du        
  27878 ****       132.5000 122.5000 144.5000 Du        
  27879 ****       132.5000 122.5000 144.7500 Du        
  27880 ****       132.5000 122.5000 145.0000 Du        
  27881 ****       132.5000 122.5000 145.2500 Du        
  27882 ****       132.5000 122.5000 145.5000 Du        
  27883 ****       132.5000 122.7500 143.5000 Du        
  27884 ****       132.5000 122.7500 143.7500 Du        
  27885 ****       132.5000 122.7500 144.0000 Du        
  27886 ****       132.5000 122.7500 144.2500 Du        
  27887 ****       132.5000 122.7500 144.5000 Du        
  27888 ****       132.5000 122.7500 144.7500 Du        
  27889 ****       132.5000 122.7500 145.0000 Du        
  27890 ****       132.5000 122.7500 145.2500 Du        
  27891 ****       132.5000 122.7500 145.5000 Du        
  27892 ****       132.5000 123.0000 143.5000 Du        
  27893 ****       132.5000 123.0000 143.7500 Du        
  27894 ****       132.5000 123.0000 144.0000 Du        
  27895 ****       132.5000 123.0000 144.2500 Du        
  27896 ****       132.5000 123.0000 144.5000 Du        
  27897 ****       132.5000 123.0000 144.7500 Du        
  27898 ****       132.5000 123.0000 145.0000 Du        
  27899 ****       132.5000 123.0000 145.2500 Du        
  27900 ****       132.5000 123.0000 145.5000 Du        
  27901 ****       132.5000 123.2500 143.7500 Du        
  27902 ****       132.5000 123.2500 144.0000 Du        
  27903 ****       132.5000 123.2500 144.2500 Du        
  27904 ****       132.5000 123.2500 144.5000 Du        
  27905 ****       132.5000 123.2500 144.7500 Du        
  27906 ****       132.5000 123.2500 145.0000 Du        
  27907 ****       132.5000 123.2500 145.2500 Du        
  27908 ****       132.5000 123.2500 145.5000 Du        
  27909 ****       132.5000 123.2500 145.7500 Du        
  27910 ****       132.5000 123.5000 144.0000 Du        
  27911 ****       132.5000 123.5000 144.2500 Du        
  27912 ****       132.5000 123.5000 144.5000 Du        
  27913 ****       132.5000 123.5000 144.7500 Du        
  27914 ****       132.5000 123.5000 145.0000 Du        
  27915 ****       132.5000 123.5000 145.2500 Du        
  27916 ****       132.5000 123.5000 145.5000 Du        
  27917 ****       132.5000 123.7500 144.0000 Du        
  27918 ****       132.5000 123.7500 144.2500 Du        
  27919 ****       132.5000 123.7500 144.5000 Du        
  27920 ****       132.5000 123.7500 144.7500 Du        
  27921 ****       132.5000 123.7500 145.0000 Du        
  27922 ****       132.5000 123.7500 145.2500 Du        
  27923 ****       132.5000 123.7500 145.5000 Du        
  27924 ****       132.5000 124.0000 144.2500 Du        
  27925 ****       132.5000 124.0000 144.5000 Du        
  27926 ****       132.5000 124.0000 144.7500 Du        
  27927 ****       132.5000 124.0000 145.0000 Du        
  27928 ****       132.5000 124.2500 144.7500 Du        
  27929 ****       132.5000 126.7500 165.7500 Du        
  27930 ****       132.5000 126.7500 166.0000 Du        
  27931 ****       132.5000 127.0000 165.2500 Du        
  27932 ****       132.5000 127.0000 165.5000 Du        
  27933 ****       132.5000 127.0000 165.7500 Du        
  27934 ****       132.5000 127.0000 166.0000 Du        
  27935 ****       132.5000 127.0000 166.2500 Du        
  27936 ****       132.5000 127.2500 165.2500 Du        
  27937 ****       132.5000 127.2500 165.5000 Du        
  27938 ****       132.5000 127.2500 165.7500 Du        
  27939 ****       132.5000 127.2500 166.0000 Du        
  27940 ****       132.5000 127.2500 166.2500 Du        
  27941 ****       132.5000 127.5000 143.7500 Du        
  27942 ****       132.5000 127.5000 144.0000 Du        
  27943 ****       132.5000 127.5000 144.2500 Du        
  27944 ****       132.5000 127.5000 165.0000 Du        
  27945 ****       132.5000 127.5000 165.2500 Du        
  27946 ****       132.5000 127.5000 165.5000 Du        
  27947 ****       132.5000 127.5000 165.7500 Du        
  27948 ****       132.5000 127.5000 166.0000 Du        
  27949 ****       132.5000 127.5000 166.2500 Du        
  27950 ****       132.5000 127.7500 143.7500 Du        
  27951 ****       132.5000 127.7500 144.0000 Du        
  27952 ****       132.5000 127.7500 144.2500 Du        
  27953 ****       132.5000 127.7500 165.0000 Du        
  27954 ****       132.5000 127.7500 165.2500 Du        
  27955 ****       132.5000 127.7500 165.5000 Du        
  27956 ****       132.5000 127.7500 165.7500 Du        
  27957 ****       132.5000 127.7500 166.0000 Du        
  27958 ****       132.5000 127.7500 166.2500 Du        
  27959 ****       132.5000 128.0000 143.7500 Du        
  27960 ****       132.5000 128.0000 144.0000 Du        
  27961 ****       132.5000 128.0000 144.2500 Du        
  27962 ****       132.5000 128.0000 165.0000 Du        
  27963 ****       132.5000 128.0000 165.2500 Du        
  27964 ****       132.5000 128.0000 165.5000 Du        
  27965 ****       132.5000 128.0000 165.7500 Du        
  27966 ****       132.5000 128.0000 166.0000 Du        
  27967 ****       132.5000 128.0000 166.2500 Du        
  27968 ****       132.5000 128.2500 165.0000 Du        
  27969 ****       132.5000 128.2500 165.2500 Du        
  27970 ****       132.5000 128.2500 165.5000 Du        
  27971 ****       132.5000 128.2500 165.7500 Du        
  27972 ****       132.5000 128.2500 166.0000 Du        
  27973 ****       132.5000 128.5000 165.2500 Du        
  27974 ****       132.5000 128.5000 165.5000 Du        
  27975 ****       132.5000 128.5000 165.7500 Du        
  27976 ****       132.5000 128.5000 166.0000 Du        
  27977 ****       132.5000 128.7500 165.7500 Du        
  27978 ****       132.5000 128.7500 166.0000 Du        
  27979 ****       132.5000 134.0000 155.7500 Du        
  27980 ****       132.5000 134.0000 156.0000 Du        
  27981 ****       132.5000 134.0000 156.2500 Du        
  27982 ****       132.5000 134.2500 155.5000 Du        
  27983 ****       132.5000 134.2500 155.7500 Du        
  27984 ****       132.5000 134.2500 156.0000 Du        
  27985 ****       132.5000 134.2500 156.2500 Du        
  27986 ****       132.5000 134.2500 156.5000 Du        
  27987 ****       132.5000 134.5000 155.5000 Du        
  27988 ****       132.5000 134.5000 155.7500 Du        
  27989 ****       132.5000 134.5000 156.0000 Du        
  27990 ****       132.5000 134.5000 156.2500 Du        
  27991 ****       132.5000 134.5000 156.5000 Du        
  27992 ****       132.5000 134.5000 156.7500 Du        
  27993 ****       132.5000 134.7500 155.7500 Du        
  27994 ****       132.5000 134.7500 156.0000 Du        
  27995 ****       132.5000 134.7500 156.2500 Du        
  27996 ****       132.5000 134.7500 156.5000 Du        
  27997 ****       132.5000 136.0000  96.5000 Du        
  27998 ****       132.5000 136.0000  96.7500 Du        
  27999 ****       132.5000 136.2500  96.2500 Du        
  28000 ****       132.5000 136.2500  96.5000 Du        
  28001 ****       132.5000 136.2500  96.7500 Du        
  28002 ****       132.5000 136.2500  97.0000 Du        
  28003 ****       132.5000 136.5000  96.2500 Du        
  28004 ****       132.5000 136.5000  96.5000 Du        
  28005 ****       132.5000 136.5000  96.7500 Du        
  28006 ****       132.5000 136.5000  97.0000 Du        
  28007 ****       132.5000 136.7500  96.2500 Du        
  28008 ****       132.5000 136.7500  96.5000 Du        
  28009 ****       132.5000 136.7500  96.7500 Du        
  28010 ****       132.5000 136.7500  97.0000 Du        
  28011 ****       132.5000 137.0000  88.2500 Du        
  28012 ****       132.5000 137.0000  96.0000 Du        
  28013 ****       132.5000 137.0000  96.2500 Du        
  28014 ****       132.5000 137.0000  96.5000 Du        
  28015 ****       132.5000 137.0000  96.7500 Du        
  28016 ****       132.5000 137.0000  97.0000 Du        
  28017 ****       132.5000 137.2500  88.0000 Du        
  28018 ****       132.5000 137.2500  88.2500 Du        
  28019 ****       132.5000 137.2500  88.5000 Du        
  28020 ****       132.5000 137.2500  88.7500 Du        
  28021 ****       132.5000 137.2500  89.0000 Du        
  28022 ****       132.5000 137.2500  95.7500 Du        
  28023 ****       132.5000 137.2500  96.0000 Du        
  28024 ****       132.5000 137.2500  96.2500 Du        
  28025 ****       132.5000 137.2500  96.5000 Du        
  28026 ****       132.5000 137.2500  96.7500 Du        
  28027 ****       132.5000 137.2500  97.0000 Du        
  28028 ****       132.5000 137.5000  88.7500 Du        
  28029 ****       132.5000 137.5000  89.0000 Du        
  28030 ****       132.5000 137.5000  95.7500 Du        
  28031 ****       132.5000 137.5000  96.0000 Du        
  28032 ****       132.5000 137.5000  96.2500 Du        
  28033 ****       132.5000 137.5000  96.5000 Du        
  28034 ****       132.5000 137.5000  96.7500 Du        
  28035 ****       132.5000 137.5000  97.0000 Du        
  28036 ****       132.5000 137.7500  89.2500 Du        
  28037 ****       132.5000 137.7500  95.5000 Du        
  28038 ****       132.5000 137.7500  95.7500 Du        
  28039 ****       132.5000 137.7500  96.0000 Du        
  28040 ****       132.5000 137.7500  96.2500 Du        
  28041 ****       132.5000 137.7500  96.5000 Du        
  28042 ****       132.5000 137.7500  96.7500 Du        
  28043 ****       132.5000 137.7500  97.0000 Du        
  28044 ****       132.5000 137.7500 142.0000 Du        
  28045 ****       132.5000 138.0000  89.2500 Du        
  28046 ****       132.5000 138.0000  89.5000 Du        
  28047 ****       132.5000 138.0000  95.5000 Du        
  28048 ****       132.5000 138.0000  95.7500 Du        
  28049 ****       132.5000 138.0000  96.0000 Du        
  28050 ****       132.5000 138.0000  96.2500 Du        
  28051 ****       132.5000 138.0000  96.5000 Du        
  28052 ****       132.5000 138.0000  96.7500 Du        
  28053 ****       132.5000 138.0000  97.0000 Du        
  28054 ****       132.5000 138.2500  95.7500 Du        
  28055 ****       132.5000 138.2500  96.0000 Du        
  28056 ****       132.5000 138.2500  96.2500 Du        
  28057 ****       132.5000 138.2500  96.5000 Du        
  28058 ****       132.5000 138.2500  96.7500 Du        
  28059 ****       132.5000 138.2500  97.0000 Du        
  28060 ****       132.5000 138.5000  96.5000 Du        
  28061 ****       132.5000 138.5000  96.7500 Du        
  28062 ****       132.5000 138.7500 104.2500 Du        
  28063 ****       132.5000 138.7500 104.5000 Du        
  28064 ****       132.5000 138.7500 104.7500 Du        
  28065 ****       132.5000 138.7500 107.0000 Du        
  28066 ****       132.5000 138.7500 107.2500 Du        
  28067 ****       132.5000 138.7500 107.5000 Du        
  28068 ****       132.5000 138.7500 107.7500 Du        
  28069 ****       132.5000 139.0000 104.0000 Du        
  28070 ****       132.5000 139.0000 104.2500 Du        
  28071 ****       132.5000 139.0000 104.5000 Du        
  28072 ****       132.5000 139.0000 104.7500 Du        
  28073 ****       132.5000 139.0000 105.0000 Du        
  28074 ****       132.5000 139.0000 105.2500 Du        
  28075 ****       132.5000 139.0000 105.5000 Du        
  28076 ****       132.5000 139.0000 105.7500 Du        
  28077 ****       132.5000 139.0000 106.0000 Du        
  28078 ****       132.5000 139.0000 106.2500 Du        
  28079 ****       132.5000 139.0000 106.5000 Du        
  28080 ****       132.5000 139.0000 106.7500 Du        
  28081 ****       132.5000 139.0000 107.0000 Du        
  28082 ****       132.5000 139.0000 107.2500 Du        
  28083 ****       132.5000 139.2500 103.7500 Du        
  28084 ****       132.5000 139.2500 104.0000 Du        
  28085 ****       132.5000 139.2500 104.2500 Du        
  28086 ****       132.5000 139.2500 104.5000 Du        
  28087 ****       132.5000 139.2500 104.7500 Du        
  28088 ****       132.5000 139.2500 105.0000 Du        
  28089 ****       132.5000 139.2500 105.2500 Du        
  28090 ****       132.5000 139.2500 105.5000 Du        
  28091 ****       132.5000 139.2500 105.7500 Du        
  28092 ****       132.5000 139.2500 106.0000 Du        
  28093 ****       132.5000 139.2500 106.2500 Du        
  28094 ****       132.5000 139.2500 106.5000 Du        
  28095 ****       132.5000 139.5000 103.7500 Du        
  28096 ****       132.5000 139.5000 104.0000 Du        
  28097 ****       132.5000 139.5000 104.2500 Du        
  28098 ****       132.5000 139.5000 104.5000 Du        
  28099 ****       132.5000 139.5000 104.7500 Du        
  28100 ****       132.5000 139.5000 105.0000 Du        
  28101 ****       132.5000 139.5000 105.2500 Du        
  28102 ****       132.5000 139.5000 105.5000 Du        
  28103 ****       132.5000 139.5000 105.7500 Du        
  28104 ****       132.5000 139.5000 106.0000 Du        
  28105 ****       132.5000 139.7500 103.7500 Du        
  28106 ****       132.5000 139.7500 104.0000 Du        
  28107 ****       132.5000 139.7500 104.2500 Du        
  28108 ****       132.5000 139.7500 104.5000 Du        
  28109 ****       132.5000 139.7500 104.7500 Du        
  28110 ****       132.5000 139.7500 105.0000 Du        
  28111 ****       132.5000 139.7500 105.2500 Du        
  28112 ****       132.5000 140.0000 104.0000 Du        
  28113 ****       132.5000 140.0000 104.2500 Du        
  28114 ****       132.5000 140.0000 104.5000 Du        
  28115 ****       132.5000 141.7500  99.5000 Du        
  28116 ****       132.5000 141.7500  99.7500 Du        
  28117 ****       132.5000 141.7500 100.0000 Du        
  28118 ****       132.5000 142.0000  99.2500 Du        
  28119 ****       132.5000 142.0000  99.5000 Du        
  28120 ****       132.5000 142.0000  99.7500 Du        
  28121 ****       132.5000 142.0000 100.0000 Du        
  28122 ****       132.5000 142.0000 100.2500 Du        
  28123 ****       132.5000 142.2500  99.5000 Du        
  28124 ****       132.5000 142.2500  99.7500 Du        
  28125 ****       132.5000 142.2500 100.0000 Du        
  28126 ****       132.5000 142.2500 100.2500 Du        
  28127 ****       132.5000 142.5000  99.7500 Du        
  28128 ****       132.5000 142.5000 100.0000 Du        
  28129 ****       132.5000 142.7500 100.0000 Du        
  28130 ****       132.5000 144.0000 126.2500 Du        
  28131 ****       132.5000 144.2500 126.2500 Du        
  28132 ****       132.5000 144.2500 126.5000 Du        
  28133 ****       132.5000 144.5000 126.2500 Du        
  28134 ****       132.5000 144.7500 126.2500 Du        
  28135 ****       132.5000 145.0000 126.2500 Du        
  28136 ****       132.5000 160.2500 146.0000 Du        
  28137 ****       132.5000 160.5000 146.0000 Du        
  28138 ****       132.5000 160.7500 146.2500 Du        
  28139 ****       132.5000 160.7500 146.5000 Du        
  28140 ****       132.5000 161.0000 146.5000 Du        
  28141 ****       132.5000 161.2500 146.5000 Du        
  28142 ****       132.5000 161.2500 146.7500 Du        
  28143 ****       132.7500 121.0000 144.2500 Du        
  28144 ****       132.7500 121.0000 144.5000 Du        
  28145 ****       132.7500 121.0000 144.7500 Du        
  28146 ****       132.7500 121.0000 145.0000 Du        
  28147 ****       132.7500 121.0000 145.2500 Du        
  28148 ****       132.7500 121.0000 145.5000 Du        
  28149 ****       132.7500 121.0000 145.7500 Du        
  28150 ****       132.7500 121.2500 144.0000 Du        
  28151 ****       132.7500 121.2500 144.2500 Du        
  28152 ****       132.7500 121.2500 144.5000 Du        
  28153 ****       132.7500 121.2500 144.7500 Du        
  28154 ****       132.7500 121.2500 145.0000 Du        
  28155 ****       132.7500 121.2500 145.2500 Du        
  28156 ****       132.7500 121.2500 145.5000 Du        
  28157 ****       132.7500 121.2500 145.7500 Du        
  28158 ****       132.7500 121.5000 144.0000 Du        
  28159 ****       132.7500 121.5000 144.2500 Du        
  28160 ****       132.7500 121.5000 144.5000 Du        
  28161 ****       132.7500 121.5000 144.7500 Du        
  28162 ****       132.7500 121.5000 145.0000 Du        
  28163 ****       132.7500 121.5000 145.2500 Du        
  28164 ****       132.7500 121.5000 145.5000 Du        
  28165 ****       132.7500 121.5000 145.7500 Du        
  28166 ****       132.7500 121.7500 143.7500 Du        
  28167 ****       132.7500 121.7500 144.0000 Du        
  28168 ****       132.7500 121.7500 144.2500 Du        
  28169 ****       132.7500 121.7500 144.5000 Du        
  28170 ****       132.7500 121.7500 144.7500 Du        
  28171 ****       132.7500 121.7500 145.0000 Du        
  28172 ****       132.7500 121.7500 145.2500 Du        
  28173 ****       132.7500 121.7500 145.5000 Du        
  28174 ****       132.7500 121.7500 145.7500 Du        
  28175 ****       132.7500 122.0000 143.5000 Du        
  28176 ****       132.7500 122.0000 143.7500 Du        
  28177 ****       132.7500 122.0000 144.0000 Du        
  28178 ****       132.7500 122.0000 144.2500 Du        
  28179 ****       132.7500 122.0000 144.5000 Du        
  28180 ****       132.7500 122.0000 144.7500 Du        
  28181 ****       132.7500 122.0000 145.0000 Du        
  28182 ****       132.7500 122.0000 145.2500 Du        
  28183 ****       132.7500 122.0000 145.5000 Du        
  28184 ****       132.7500 122.2500 143.5000 Du        
  28185 ****       132.7500 122.2500 143.7500 Du        
  28186 ****       132.7500 122.2500 144.0000 Du        
  28187 ****       132.7500 122.2500 144.2500 Du        
  28188 ****       132.7500 122.2500 144.5000 Du        
  28189 ****       132.7500 122.2500 144.7500 Du        
  28190 ****       132.7500 122.2500 145.0000 Du        
  28191 ****       132.7500 122.2500 145.2500 Du        
  28192 ****       132.7500 122.2500 145.5000 Du        
  28193 ****       132.7500 122.5000 143.5000 Du        
  28194 ****       132.7500 122.5000 143.7500 Du        
  28195 ****       132.7500 122.5000 144.0000 Du        
  28196 ****       132.7500 122.5000 144.2500 Du        
  28197 ****       132.7500 122.5000 144.5000 Du        
  28198 ****       132.7500 122.5000 144.7500 Du        
  28199 ****       132.7500 122.5000 145.0000 Du        
  28200 ****       132.7500 122.5000 145.2500 Du        
  28201 ****       132.7500 122.5000 145.5000 Du        
  28202 ****       132.7500 122.5000 145.7500 Du        
  28203 ****       132.7500 122.7500 143.5000 Du        
  28204 ****       132.7500 122.7500 143.7500 Du        
  28205 ****       132.7500 122.7500 144.0000 Du        
  28206 ****       132.7500 122.7500 144.2500 Du        
  28207 ****       132.7500 122.7500 144.5000 Du        
  28208 ****       132.7500 122.7500 144.7500 Du        
  28209 ****       132.7500 122.7500 145.0000 Du        
  28210 ****       132.7500 122.7500 145.2500 Du        
  28211 ****       132.7500 122.7500 145.5000 Du        
  28212 ****       132.7500 122.7500 145.7500 Du        
  28213 ****       132.7500 123.0000 143.7500 Du        
  28214 ****       132.7500 123.0000 144.0000 Du        
  28215 ****       132.7500 123.0000 144.2500 Du        
  28216 ****       132.7500 123.0000 144.5000 Du        
  28217 ****       132.7500 123.0000 144.7500 Du        
  28218 ****       132.7500 123.0000 145.0000 Du        
  28219 ****       132.7500 123.0000 145.2500 Du        
  28220 ****       132.7500 123.0000 145.5000 Du        
  28221 ****       132.7500 123.0000 145.7500 Du        
  28222 ****       132.7500 123.2500 144.0000 Du        
  28223 ****       132.7500 123.2500 144.2500 Du        
  28224 ****       132.7500 123.2500 144.5000 Du        
  28225 ****       132.7500 123.2500 144.7500 Du        
  28226 ****       132.7500 123.2500 145.0000 Du        
  28227 ****       132.7500 123.2500 145.2500 Du        
  28228 ****       132.7500 123.2500 145.5000 Du        
  28229 ****       132.7500 123.5000 144.2500 Du        
  28230 ****       132.7500 123.5000 144.5000 Du        
  28231 ****       132.7500 123.5000 144.7500 Du        
  28232 ****       132.7500 123.5000 145.0000 Du        
  28233 ****       132.7500 123.5000 145.2500 Du        
  28234 ****       132.7500 123.7500 144.5000 Du        
  28235 ****       132.7500 123.7500 144.7500 Du        
  28236 ****       132.7500 123.7500 145.0000 Du        
  28237 ****       132.7500 127.0000 165.7500 Du        
  28238 ****       132.7500 127.2500 165.2500 Du        
  28239 ****       132.7500 127.2500 165.5000 Du        
  28240 ****       132.7500 127.2500 165.7500 Du        
  28241 ****       132.7500 127.2500 166.0000 Du        
  28242 ****       132.7500 127.5000 165.0000 Du        
  28243 ****       132.7500 127.5000 165.2500 Du        
  28244 ****       132.7500 127.5000 165.5000 Du        
  28245 ****       132.7500 127.5000 165.7500 Du        
  28246 ****       132.7500 127.5000 166.0000 Du        
  28247 ****       132.7500 127.7500 165.0000 Du        
  28248 ****       132.7500 127.7500 165.2500 Du        
  28249 ****       132.7500 127.7500 165.5000 Du        
  28250 ****       132.7500 127.7500 165.7500 Du        
  28251 ****       132.7500 127.7500 166.0000 Du        
  28252 ****       132.7500 128.0000 144.0000 Du        
  28253 ****       132.7500 128.0000 144.2500 Du        
  28254 ****       132.7500 128.0000 165.0000 Du        
  28255 ****       132.7500 128.0000 165.2500 Du        
  28256 ****       132.7500 128.0000 165.5000 Du        
  28257 ****       132.7500 128.0000 165.7500 Du        
  28258 ****       132.7500 128.0000 166.0000 Du        
  28259 ****       132.7500 128.2500 165.0000 Du        
  28260 ****       132.7500 128.2500 165.2500 Du        
  28261 ****       132.7500 128.2500 165.5000 Du        
  28262 ****       132.7500 128.2500 165.7500 Du        
  28263 ****       132.7500 128.2500 166.0000 Du        
  28264 ****       132.7500 128.5000 165.0000 Du        
  28265 ****       132.7500 128.5000 165.2500 Du        
  28266 ****       132.7500 128.5000 165.5000 Du        
  28267 ****       132.7500 128.5000 165.7500 Du        
  28268 ****       132.7500 128.7500 165.2500 Du        
  28269 ****       132.7500 128.7500 165.5000 Du        
  28270 ****       132.7500 128.7500 165.7500 Du        
  28271 ****       132.7500 134.2500 155.7500 Du        
  28272 ****       132.7500 134.2500 156.0000 Du        
  28273 ****       132.7500 134.2500 156.2500 Du        
  28274 ****       132.7500 134.2500 156.5000 Du        
  28275 ****       132.7500 134.5000 155.5000 Du        
  28276 ****       132.7500 134.5000 155.7500 Du        
  28277 ****       132.7500 134.5000 156.0000 Du        
  28278 ****       132.7500 134.5000 156.2500 Du        
  28279 ****       132.7500 134.5000 156.5000 Du        
  28280 ****       132.7500 134.7500 155.7500 Du        
  28281 ****       132.7500 134.7500 156.0000 Du        
  28282 ****       132.7500 134.7500 156.2500 Du        
  28283 ****       132.7500 134.7500 156.5000 Du        
  28284 ****       132.7500 136.0000  96.5000 Du        
  28285 ****       132.7500 136.0000  96.7500 Du        
  28286 ****       132.7500 136.2500  96.5000 Du        
  28287 ****       132.7500 136.2500  96.7500 Du        
  28288 ****       132.7500 136.5000  96.5000 Du        
  28289 ****       132.7500 136.5000  96.7500 Du        
  28290 ****       132.7500 136.5000  97.0000 Du        
  28291 ****       132.7500 136.7500  88.7500 Du        
  28292 ****       132.7500 136.7500  96.2500 Du        
  28293 ****       132.7500 136.7500  96.5000 Du        
  28294 ****       132.7500 136.7500  96.7500 Du        
  28295 ****       132.7500 136.7500  97.0000 Du        
  28296 ****       132.7500 137.0000  88.0000 Du        
  28297 ****       132.7500 137.0000  88.2500 Du        
  28298 ****       132.7500 137.0000  88.5000 Du        
  28299 ****       132.7500 137.0000  88.7500 Du        
  28300 ****       132.7500 137.0000  89.0000 Du        
  28301 ****       132.7500 137.0000  89.2500 Du        
  28302 ****       132.7500 137.0000  96.2500 Du        
  28303 ****       132.7500 137.0000  96.5000 Du        
  28304 ****       132.7500 137.0000  96.7500 Du        
  28305 ****       132.7500 137.0000  97.0000 Du        
  28306 ****       132.7500 137.2500  88.0000 Du        
  28307 ****       132.7500 137.2500  88.2500 Du        
  28308 ****       132.7500 137.2500  88.5000 Du        
  28309 ****       132.7500 137.2500  88.7500 Du        
  28310 ****       132.7500 137.2500  89.0000 Du        
  28311 ****       132.7500 137.2500  89.2500 Du        
  28312 ****       132.7500 137.2500  89.5000 Du        
  28313 ****       132.7500 137.2500  89.7500 Du        
  28314 ****       132.7500 137.2500  96.0000 Du        
  28315 ****       132.7500 137.2500  96.2500 Du        
  28316 ****       132.7500 137.2500  96.5000 Du        
  28317 ****       132.7500 137.2500  96.7500 Du        
  28318 ****       132.7500 137.2500  97.0000 Du        
  28319 ****       132.7500 137.5000  88.7500 Du        
  28320 ****       132.7500 137.5000  89.0000 Du        
  28321 ****       132.7500 137.5000  89.2500 Du        
  28322 ****       132.7500 137.5000  89.5000 Du        
  28323 ****       132.7500 137.5000  89.7500 Du        
  28324 ****       132.7500 137.5000  90.0000 Du        
  28325 ****       132.7500 137.5000  90.2500 Du        
  28326 ****       132.7500 137.5000  96.0000 Du        
  28327 ****       132.7500 137.5000  96.2500 Du        
  28328 ****       132.7500 137.5000  96.5000 Du        
  28329 ****       132.7500 137.5000  96.7500 Du        
  28330 ****       132.7500 137.5000  97.0000 Du        
  28331 ****       132.7500 137.7500  88.7500 Du        
  28332 ****       132.7500 137.7500  89.0000 Du        
  28333 ****       132.7500 137.7500  89.2500 Du        
  28334 ****       132.7500 137.7500  89.5000 Du        
  28335 ****       132.7500 137.7500  89.7500 Du        
  28336 ****       132.7500 137.7500  90.0000 Du        
  28337 ****       132.7500 137.7500  90.2500 Du        
  28338 ****       132.7500 137.7500  90.5000 Du        
  28339 ****       132.7500 137.7500  90.7500 Du        
  28340 ****       132.7500 137.7500  95.7500 Du        
  28341 ****       132.7500 137.7500  96.0000 Du        
  28342 ****       132.7500 137.7500  96.2500 Du        
  28343 ****       132.7500 137.7500  96.5000 Du        
  28344 ****       132.7500 137.7500  96.7500 Du        
  28345 ****       132.7500 137.7500  97.0000 Du        
  28346 ****       132.7500 138.0000  89.2500 Du        
  28347 ****       132.7500 138.0000  89.5000 Du        
  28348 ****       132.7500 138.0000  89.7500 Du        
  28349 ****       132.7500 138.0000  90.0000 Du        
  28350 ****       132.7500 138.0000  90.2500 Du        
  28351 ****       132.7500 138.0000  90.5000 Du        
  28352 ****       132.7500 138.0000  90.7500 Du        
  28353 ****       132.7500 138.0000  91.0000 Du        
  28354 ****       132.7500 138.0000  95.7500 Du        
  28355 ****       132.7500 138.0000  96.0000 Du        
  28356 ****       132.7500 138.0000  96.2500 Du        
  28357 ****       132.7500 138.0000  96.5000 Du        
  28358 ****       132.7500 138.0000  96.7500 Du        
  28359 ****       132.7500 138.0000  97.0000 Du        
  28360 ****       132.7500 138.2500  90.0000 Du        
  28361 ****       132.7500 138.2500  90.2500 Du        
  28362 ****       132.7500 138.2500  95.7500 Du        
  28363 ****       132.7500 138.2500  96.0000 Du        
  28364 ****       132.7500 138.2500  96.2500 Du        
  28365 ****       132.7500 138.2500  96.5000 Du        
  28366 ****       132.7500 138.2500  96.7500 Du        
  28367 ****       132.7500 138.2500  97.0000 Du        
  28368 ****       132.7500 138.2500 107.5000 Du        
  28369 ****       132.7500 138.2500 107.7500 Du        
  28370 ****       132.7500 138.5000  96.5000 Du        
  28371 ****       132.7500 138.5000  96.7500 Du        
  28372 ****       132.7500 138.5000  97.0000 Du        
  28373 ****       132.7500 138.5000 104.2500 Du        
  28374 ****       132.7500 138.5000 107.2500 Du        
  28375 ****       132.7500 138.5000 107.5000 Du        
  28376 ****       132.7500 138.5000 107.7500 Du        
  28377 ****       132.7500 138.7500  96.5000 Du        
  28378 ****       132.7500 138.7500  96.7500 Du        
  28379 ****       132.7500 138.7500  97.0000 Du        
  28380 ****       132.7500 138.7500 104.0000 Du        
  28381 ****       132.7500 138.7500 104.2500 Du        
  28382 ****       132.7500 138.7500 104.5000 Du        
  28383 ****       132.7500 138.7500 104.7500 Du        
  28384 ****       132.7500 138.7500 105.0000 Du        
  28385 ****       132.7500 138.7500 106.7500 Du        
  28386 ****       132.7500 138.7500 107.0000 Du        
  28387 ****       132.7500 138.7500 107.2500 Du        
  28388 ****       132.7500 138.7500 107.5000 Du        
  28389 ****       132.7500 139.0000 103.7500 Du        
  28390 ****       132.7500 139.0000 104.0000 Du        
  28391 ****       132.7500 139.0000 104.2500 Du        
  28392 ****       132.7500 139.0000 104.5000 Du        
  28393 ****       132.7500 139.0000 104.7500 Du        
  28394 ****       132.7500 139.0000 105.0000 Du        
  28395 ****       132.7500 139.0000 105.2500 Du        
  28396 ****       132.7500 139.0000 105.5000 Du        
  28397 ****       132.7500 139.0000 105.7500 Du        
  28398 ****       132.7500 139.0000 106.0000 Du        
  28399 ****       132.7500 139.0000 106.2500 Du        
  28400 ****       132.7500 139.0000 106.5000 Du        
  28401 ****       132.7500 139.0000 106.7500 Du        
  28402 ****       132.7500 139.2500 103.5000 Du        
  28403 ****       132.7500 139.2500 103.7500 Du        
  28404 ****       132.7500 139.2500 104.0000 Du        
  28405 ****       132.7500 139.2500 104.2500 Du        
  28406 ****       132.7500 139.2500 104.5000 Du        
  28407 ****       132.7500 139.2500 104.7500 Du        
  28408 ****       132.7500 139.2500 105.0000 Du        
  28409 ****       132.7500 139.2500 105.2500 Du        
  28410 ****       132.7500 139.2500 105.5000 Du        
  28411 ****       132.7500 139.2500 105.7500 Du        
  28412 ****       132.7500 139.2500 106.0000 Du        
  28413 ****       132.7500 139.2500 106.2500 Du        
  28414 ****       132.7500 139.5000 103.7500 Du        
  28415 ****       132.7500 139.5000 104.0000 Du        
  28416 ****       132.7500 139.5000 104.2500 Du        
  28417 ****       132.7500 139.5000 104.5000 Du        
  28418 ****       132.7500 139.5000 104.7500 Du        
  28419 ****       132.7500 139.5000 105.0000 Du        
  28420 ****       132.7500 139.5000 105.2500 Du        
  28421 ****       132.7500 139.5000 105.5000 Du        
  28422 ****       132.7500 139.5000 105.7500 Du        
  28423 ****       132.7500 139.7500 104.0000 Du        
  28424 ****       132.7500 139.7500 104.2500 Du        
  28425 ****       132.7500 139.7500 104.5000 Du        
  28426 ****       132.7500 139.7500 104.7500 Du        
  28427 ****       132.7500 139.7500 105.0000 Du        
  28428 ****       132.7500 141.7500  99.5000 Du        
  28429 ****       132.7500 141.7500  99.7500 Du        
  28430 ****       132.7500 141.7500 100.0000 Du        
  28431 ****       132.7500 142.0000  99.7500 Du        
  28432 ****       132.7500 142.0000 100.0000 Du        
  28433 ****       132.7500 143.7500 126.2500 Du        
  28434 ****       132.7500 143.7500 126.5000 Du        
  28435 ****       132.7500 144.0000 126.2500 Du        
  28436 ****       132.7500 144.0000 126.5000 Du        
  28437 ****       132.7500 144.2500 126.2500 Du        
  28438 ****       132.7500 144.2500 126.5000 Du        
  28439 ****       132.7500 144.2500 126.7500 Du        
  28440 ****       132.7500 144.5000 126.2500 Du        
  28441 ****       132.7500 144.5000 126.5000 Du        
  28442 ****       132.7500 144.7500 126.2500 Du        
  28443 ****       132.7500 154.7500 108.0000 Du        
  28444 ****       132.7500 154.7500 108.2500 Du        
  28445 ****       132.7500 160.2500 145.7500 Du        
  28446 ****       132.7500 160.2500 146.0000 Du        
  28447 ****       132.7500 160.5000 145.7500 Du        
  28448 ****       132.7500 160.5000 146.0000 Du        
  28449 ****       132.7500 160.5000 146.2500 Du        
  28450 ****       132.7500 160.7500 146.0000 Du        
  28451 ****       132.7500 160.7500 146.2500 Du        
  28452 ****       132.7500 160.7500 146.5000 Du        
  28453 ****       132.7500 161.0000 146.2500 Du        
  28454 ****       132.7500 161.0000 146.5000 Du        
  28455 ****       132.7500 161.0000 146.7500 Du        
  28456 ****       132.7500 161.2500 146.5000 Du        
  28457 ****       132.7500 161.2500 146.7500 Du        
  28458 ****       133.0000 121.0000 144.5000 Du        
  28459 ****       133.0000 121.0000 144.7500 Du        
  28460 ****       133.0000 121.0000 145.0000 Du        
  28461 ****       133.0000 121.0000 145.2500 Du        
  28462 ****       133.0000 121.0000 145.5000 Du        
  28463 ****       133.0000 121.0000 145.7500 Du        
  28464 ****       133.0000 121.0000 146.0000 Du        
  28465 ****       133.0000 121.2500 144.2500 Du        
  28466 ****       133.0000 121.2500 144.5000 Du        
  28467 ****       133.0000 121.2500 144.7500 Du        
  28468 ****       133.0000 121.2500 145.0000 Du        
  28469 ****       133.0000 121.2500 145.2500 Du        
  28470 ****       133.0000 121.2500 145.5000 Du        
  28471 ****       133.0000 121.2500 145.7500 Du        
  28472 ****       133.0000 121.2500 146.0000 Du        
  28473 ****       133.0000 121.5000 144.0000 Du        
  28474 ****       133.0000 121.5000 144.2500 Du        
  28475 ****       133.0000 121.5000 144.5000 Du        
  28476 ****       133.0000 121.5000 144.7500 Du        
  28477 ****       133.0000 121.5000 145.0000 Du        
  28478 ****       133.0000 121.5000 145.2500 Du        
  28479 ****       133.0000 121.5000 145.5000 Du        
  28480 ****       133.0000 121.5000 145.7500 Du        
  28481 ****       133.0000 121.7500 144.0000 Du        
  28482 ****       133.0000 121.7500 144.2500 Du        
  28483 ****       133.0000 121.7500 144.5000 Du        
  28484 ****       133.0000 121.7500 144.7500 Du        
  28485 ****       133.0000 121.7500 145.0000 Du        
  28486 ****       133.0000 121.7500 145.2500 Du        
  28487 ****       133.0000 121.7500 145.5000 Du        
  28488 ****       133.0000 121.7500 145.7500 Du        
  28489 ****       133.0000 122.0000 143.7500 Du        
  28490 ****       133.0000 122.0000 144.0000 Du        
  28491 ****       133.0000 122.0000 144.2500 Du        
  28492 ****       133.0000 122.0000 144.5000 Du        
  28493 ****       133.0000 122.0000 144.7500 Du        
  28494 ****       133.0000 122.0000 145.0000 Du        
  28495 ****       133.0000 122.0000 145.2500 Du        
  28496 ****       133.0000 122.0000 145.5000 Du        
  28497 ****       133.0000 122.0000 145.7500 Du        
  28498 ****       133.0000 122.2500 143.7500 Du        
  28499 ****       133.0000 122.2500 144.0000 Du        
  28500 ****       133.0000 122.2500 144.2500 Du        
  28501 ****       133.0000 122.2500 144.5000 Du        
  28502 ****       133.0000 122.2500 144.7500 Du        
  28503 ****       133.0000 122.2500 145.0000 Du        
  28504 ****       133.0000 122.2500 145.2500 Du        
  28505 ****       133.0000 122.2500 145.5000 Du        
  28506 ****       133.0000 122.2500 145.7500 Du        
  28507 ****       133.0000 122.5000 143.7500 Du        
  28508 ****       133.0000 122.5000 144.0000 Du        
  28509 ****       133.0000 122.5000 144.2500 Du        
  28510 ****       133.0000 122.5000 144.5000 Du        
  28511 ****       133.0000 122.5000 144.7500 Du        
  28512 ****       133.0000 122.5000 145.0000 Du        
  28513 ****       133.0000 122.5000 145.2500 Du        
  28514 ****       133.0000 122.5000 145.5000 Du        
  28515 ****       133.0000 122.5000 145.7500 Du        
  28516 ****       133.0000 122.7500 143.7500 Du        
  28517 ****       133.0000 122.7500 144.0000 Du        
  28518 ****       133.0000 122.7500 144.2500 Du        
  28519 ****       133.0000 122.7500 144.5000 Du        
  28520 ****       133.0000 122.7500 144.7500 Du        
  28521 ****       133.0000 122.7500 145.0000 Du        
  28522 ****       133.0000 122.7500 145.2500 Du        
  28523 ****       133.0000 122.7500 145.5000 Du        
  28524 ****       133.0000 122.7500 145.7500 Du        
  28525 ****       133.0000 123.0000 144.0000 Du        
  28526 ****       133.0000 123.0000 144.2500 Du        
  28527 ****       133.0000 123.0000 144.5000 Du        
  28528 ****       133.0000 123.0000 144.7500 Du        
  28529 ****       133.0000 123.0000 145.0000 Du        
  28530 ****       133.0000 123.0000 145.2500 Du        
  28531 ****       133.0000 123.0000 145.5000 Du        
  28532 ****       133.0000 123.0000 145.7500 Du        
  28533 ****       133.0000 123.2500 144.2500 Du        
  28534 ****       133.0000 123.2500 144.5000 Du        
  28535 ****       133.0000 123.2500 144.7500 Du        
  28536 ****       133.0000 123.2500 145.0000 Du        
  28537 ****       133.0000 123.2500 145.2500 Du        
  28538 ****       133.0000 127.5000 165.2500 Du        
  28539 ****       133.0000 127.5000 165.5000 Du        
  28540 ****       133.0000 127.5000 165.7500 Du        
  28541 ****       133.0000 127.7500 165.0000 Du        
  28542 ****       133.0000 127.7500 165.2500 Du        
  28543 ****       133.0000 127.7500 165.5000 Du        
  28544 ****       133.0000 127.7500 165.7500 Du        
  28545 ****       133.0000 128.0000 165.0000 Du        
  28546 ****       133.0000 128.0000 165.2500 Du        
  28547 ****       133.0000 128.0000 165.5000 Du        
  28548 ****       133.0000 128.0000 165.7500 Du        
  28549 ****       133.0000 128.2500 164.7500 Du        
  28550 ****       133.0000 128.2500 165.0000 Du        
  28551 ****       133.0000 128.2500 165.2500 Du        
  28552 ****       133.0000 128.2500 165.5000 Du        
  28553 ****       133.0000 128.2500 165.7500 Du        
  28554 ****       133.0000 128.5000 165.0000 Du        
  28555 ****       133.0000 128.5000 165.2500 Du        
  28556 ****       133.0000 128.5000 165.5000 Du        
  28557 ****       133.0000 128.5000 165.7500 Du        
  28558 ****       133.0000 128.7500 165.0000 Du        
  28559 ****       133.0000 128.7500 165.2500 Du        
  28560 ****       133.0000 128.7500 165.5000 Du        
  28561 ****       133.0000 134.2500 156.0000 Du        
  28562 ****       133.0000 134.2500 156.2500 Du        
  28563 ****       133.0000 134.2500 156.5000 Du        
  28564 ****       133.0000 134.5000 155.7500 Du        
  28565 ****       133.0000 134.5000 156.0000 Du        
  28566 ****       133.0000 134.5000 156.2500 Du        
  28567 ****       133.0000 134.5000 156.5000 Du        
  28568 ****       133.0000 134.7500 155.7500 Du        
  28569 ****       133.0000 134.7500 156.0000 Du        
  28570 ****       133.0000 134.7500 156.2500 Du        
  28571 ****       133.0000 136.2500  96.7500 Du        
  28572 ****       133.0000 136.5000  96.7500 Du        
  28573 ****       133.0000 136.7500  88.5000 Du        
  28574 ****       133.0000 136.7500  88.7500 Du        
  28575 ****       133.0000 136.7500  89.0000 Du        
  28576 ****       133.0000 136.7500  89.2500 Du        
  28577 ****       133.0000 136.7500  89.5000 Du        
  28578 ****       133.0000 136.7500  96.5000 Du        
  28579 ****       133.0000 136.7500  96.7500 Du        
  28580 ****       133.0000 137.0000  88.0000 Du        
  28581 ****       133.0000 137.0000  88.2500 Du        
  28582 ****       133.0000 137.0000  88.5000 Du        
  28583 ****       133.0000 137.0000  88.7500 Du        
  28584 ****       133.0000 137.0000  89.0000 Du        
  28585 ****       133.0000 137.0000  89.2500 Du        
  28586 ****       133.0000 137.0000  89.5000 Du        
  28587 ****       133.0000 137.0000  89.7500 Du        
  28588 ****       133.0000 137.0000  90.0000 Du        
  28589 ****       133.0000 137.0000  96.5000 Du        
  28590 ****       133.0000 137.0000  96.7500 Du        
  28591 ****       133.0000 137.0000  97.0000 Du        
  28592 ****       133.0000 137.2500  88.0000 Du        
  28593 ****       133.0000 137.2500  88.2500 Du        
  28594 ****       133.0000 137.2500  88.5000 Du        
  28595 ****       133.0000 137.2500  88.7500 Du        
  28596 ****       133.0000 137.2500  89.0000 Du        
  28597 ****       133.0000 137.2500  89.2500 Du        
  28598 ****       133.0000 137.2500  89.5000 Du        
  28599 ****       133.0000 137.2500  89.7500 Du        
  28600 ****       133.0000 137.2500  90.0000 Du        
  28601 ****       133.0000 137.2500  90.2500 Du        
  28602 ****       133.0000 137.2500  96.2500 Du        
  28603 ****       133.0000 137.2500  96.5000 Du        
  28604 ****       133.0000 137.2500  96.7500 Du        
  28605 ****       133.0000 137.2500  97.0000 Du        
  28606 ****       133.0000 137.5000  88.5000 Du        
  28607 ****       133.0000 137.5000  88.7500 Du        
  28608 ****       133.0000 137.5000  89.0000 Du        
  28609 ****       133.0000 137.5000  89.2500 Du        
  28610 ****       133.0000 137.5000  89.5000 Du        
  28611 ****       133.0000 137.5000  89.7500 Du        
  28612 ****       133.0000 137.5000  90.0000 Du        
  28613 ****       133.0000 137.5000  90.2500 Du        
  28614 ****       133.0000 137.5000  90.5000 Du        
  28615 ****       133.0000 137.5000  96.2500 Du        
  28616 ****       133.0000 137.5000  96.5000 Du        
  28617 ****       133.0000 137.5000  96.7500 Du        
  28618 ****       133.0000 137.7500  88.7500 Du        
  28619 ****       133.0000 137.7500  89.0000 Du        
  28620 ****       133.0000 137.7500  89.2500 Du        
  28621 ****       133.0000 137.7500  89.5000 Du        
  28622 ****       133.0000 137.7500  89.7500 Du        
  28623 ****       133.0000 137.7500  90.0000 Du        
  28624 ****       133.0000 137.7500  90.2500 Du        
  28625 ****       133.0000 137.7500  90.5000 Du        
  28626 ****       133.0000 137.7500  90.7500 Du        
  28627 ****       133.0000 137.7500  91.0000 Du        
  28628 ****       133.0000 137.7500  96.0000 Du        
  28629 ****       133.0000 137.7500  96.2500 Du        
  28630 ****       133.0000 137.7500  96.5000 Du        
  28631 ****       133.0000 137.7500  96.7500 Du        
  28632 ****       133.0000 137.7500  97.0000 Du        
  28633 ****       133.0000 138.0000  89.2500 Du        
  28634 ****       133.0000 138.0000  89.5000 Du        
  28635 ****       133.0000 138.0000  89.7500 Du        
  28636 ****       133.0000 138.0000  90.0000 Du        
  28637 ****       133.0000 138.0000  90.2500 Du        
  28638 ****       133.0000 138.0000  90.5000 Du        
  28639 ****       133.0000 138.0000  90.7500 Du        
  28640 ****       133.0000 138.0000  91.0000 Du        
  28641 ****       133.0000 138.0000  95.7500 Du        
  28642 ****       133.0000 138.0000  96.0000 Du        
  28643 ****       133.0000 138.0000  96.2500 Du        
  28644 ****       133.0000 138.0000  96.5000 Du        
  28645 ****       133.0000 138.0000  96.7500 Du        
  28646 ****       133.0000 138.0000  97.0000 Du        
  28647 ****       133.0000 138.2500  90.2500 Du        
  28648 ****       133.0000 138.2500  90.7500 Du        
  28649 ****       133.0000 138.2500  91.0000 Du        
  28650 ****       133.0000 138.2500  91.2500 Du        
  28651 ****       133.0000 138.2500  95.7500 Du        
  28652 ****       133.0000 138.2500  96.0000 Du        
  28653 ****       133.0000 138.2500  96.2500 Du        
  28654 ****       133.0000 138.2500  96.5000 Du        
  28655 ****       133.0000 138.2500  96.7500 Du        
  28656 ****       133.0000 138.2500  97.0000 Du        
  28657 ****       133.0000 138.2500 104.0000 Du        
  28658 ****       133.0000 138.2500 104.2500 Du        
  28659 ****       133.0000 138.2500 104.5000 Du        
  28660 ****       133.0000 138.2500 107.2500 Du        
  28661 ****       133.0000 138.2500 107.5000 Du        
  28662 ****       133.0000 138.2500 107.7500 Du        
  28663 ****       133.0000 138.5000  96.2500 Du        
  28664 ****       133.0000 138.5000  96.5000 Du        
  28665 ****       133.0000 138.5000  96.7500 Du        
  28666 ****       133.0000 138.5000  97.0000 Du        
  28667 ****       133.0000 138.5000 103.7500 Du        
  28668 ****       133.0000 138.5000 104.0000 Du        
  28669 ****       133.0000 138.5000 104.2500 Du        
  28670 ****       133.0000 138.5000 104.5000 Du        
  28671 ****       133.0000 138.5000 104.7500 Du        
  28672 ****       133.0000 138.5000 105.0000 Du        
  28673 ****       133.0000 138.5000 107.2500 Du        
  28674 ****       133.0000 138.5000 107.5000 Du        
  28675 ****       133.0000 138.5000 107.7500 Du        
  28676 ****       133.0000 138.7500  96.5000 Du        
  28677 ****       133.0000 138.7500  96.7500 Du        
  28678 ****       133.0000 138.7500  97.0000 Du        
  28679 ****       133.0000 138.7500 103.7500 Du        
  28680 ****       133.0000 138.7500 104.0000 Du        
  28681 ****       133.0000 138.7500 104.2500 Du        
  28682 ****       133.0000 138.7500 104.5000 Du        
  28683 ****       133.0000 138.7500 104.7500 Du        
  28684 ****       133.0000 138.7500 105.0000 Du        
  28685 ****       133.0000 138.7500 105.2500 Du        
  28686 ****       133.0000 138.7500 105.5000 Du        
  28687 ****       133.0000 138.7500 105.7500 Du        
  28688 ****       133.0000 138.7500 106.0000 Du        
  28689 ****       133.0000 138.7500 106.2500 Du        
  28690 ****       133.0000 138.7500 106.5000 Du        
  28691 ****       133.0000 139.0000  96.7500 Du        
  28692 ****       133.0000 139.0000 103.5000 Du        
  28693 ****       133.0000 139.0000 103.7500 Du        
  28694 ****       133.0000 139.0000 104.0000 Du        
  28695 ****       133.0000 139.0000 104.2500 Du        
  28696 ****       133.0000 139.0000 104.5000 Du        
  28697 ****       133.0000 139.0000 104.7500 Du        
  28698 ****       133.0000 139.0000 105.0000 Du        
  28699 ****       133.0000 139.0000 105.2500 Du        
  28700 ****       133.0000 139.0000 105.5000 Du        
  28701 ****       133.0000 139.0000 105.7500 Du        
  28702 ****       133.0000 139.0000 106.0000 Du        
  28703 ****       133.0000 139.0000 106.2500 Du        
  28704 ****       133.0000 139.2500 103.5000 Du        
  28705 ****       133.0000 139.2500 103.7500 Du        
  28706 ****       133.0000 139.2500 104.0000 Du        
  28707 ****       133.0000 139.2500 104.2500 Du        
  28708 ****       133.0000 139.2500 104.5000 Du        
  28709 ****       133.0000 139.2500 104.7500 Du        
  28710 ****       133.0000 139.2500 105.0000 Du        
  28711 ****       133.0000 139.2500 105.2500 Du        
  28712 ****       133.0000 139.2500 105.5000 Du        
  28713 ****       133.0000 139.2500 105.7500 Du        
  28714 ****       133.0000 139.2500 106.0000 Du        
  28715 ****       133.0000 139.5000 103.7500 Du        
  28716 ****       133.0000 139.5000 104.0000 Du        
  28717 ****       133.0000 139.5000 104.2500 Du        
  28718 ****       133.0000 139.5000 104.5000 Du        
  28719 ****       133.0000 139.5000 104.7500 Du        
  28720 ****       133.0000 139.5000 105.0000 Du        
  28721 ****       133.0000 139.5000 105.2500 Du        
  28722 ****       133.0000 139.5000 105.5000 Du        
  28723 ****       133.0000 139.7500 104.2500 Du        
  28724 ****       133.0000 139.7500 104.5000 Du        
  28725 ****       133.0000 139.7500 104.7500 Du        
  28726 ****       133.0000 143.2500 130.7500 Du        
  28727 ****       133.0000 143.2500 131.0000 Du        
  28728 ****       133.0000 143.5000 126.2500 Du        
  28729 ****       133.0000 143.5000 126.5000 Du        
  28730 ****       133.0000 143.5000 126.7500 Du        
  28731 ****       133.0000 143.7500 126.2500 Du        
  28732 ****       133.0000 143.7500 126.5000 Du        
  28733 ****       133.0000 143.7500 126.7500 Du        
  28734 ****       133.0000 143.7500 127.0000 Du        
  28735 ****       133.0000 144.0000 126.2500 Du        
  28736 ****       133.0000 144.0000 126.5000 Du        
  28737 ****       133.0000 144.0000 126.7500 Du        
  28738 ****       133.0000 144.0000 127.0000 Du        
  28739 ****       133.0000 144.0000 127.2500 Du        
  28740 ****       133.0000 144.0000 130.2500 Du        
  28741 ****       133.0000 144.2500 126.2500 Du        
  28742 ****       133.0000 144.2500 126.5000 Du        
  28743 ****       133.0000 144.2500 126.7500 Du        
  28744 ****       133.0000 144.2500 127.0000 Du        
  28745 ****       133.0000 144.5000 126.2500 Du        
  28746 ****       133.0000 144.5000 126.5000 Du        
  28747 ****       133.0000 144.7500 126.2500 Du        
  28748 ****       133.0000 154.5000 108.0000 Du        
  28749 ****       133.0000 154.5000 108.2500 Du        
  28750 ****       133.0000 154.5000 108.5000 Du        
  28751 ****       133.0000 154.5000 108.7500 Du        
  28752 ****       133.0000 154.5000 109.0000 Du        
  28753 ****       133.0000 154.7500 107.7500 Du        
  28754 ****       133.0000 154.7500 108.0000 Du        
  28755 ****       133.0000 154.7500 108.2500 Du        
  28756 ****       133.0000 154.7500 108.5000 Du        
  28757 ****       133.0000 154.7500 108.7500 Du        
  28758 ****       133.0000 154.7500 109.0000 Du        
  28759 ****       133.0000 154.7500 109.2500 Du        
  28760 ****       133.0000 155.0000 107.7500 Du        
  28761 ****       133.0000 155.0000 108.0000 Du        
  28762 ****       133.0000 155.0000 108.2500 Du        
  28763 ****       133.0000 155.0000 108.5000 Du        
  28764 ****       133.0000 155.0000 108.7500 Du        
  28765 ****       133.0000 155.0000 109.0000 Du        
  28766 ****       133.0000 160.5000 146.0000 Du        
  28767 ****       133.0000 160.5000 146.2500 Du        
  28768 ****       133.0000 160.5000 146.5000 Du        
  28769 ****       133.0000 160.7500 146.0000 Du        
  28770 ****       133.0000 160.7500 146.2500 Du        
  28771 ****       133.0000 160.7500 146.5000 Du        
  28772 ****       133.0000 161.0000 146.0000 Du        
  28773 ****       133.0000 161.0000 146.2500 Du        
  28774 ****       133.0000 161.0000 146.5000 Du        
  28775 ****       133.0000 161.0000 146.7500 Du        
  28776 ****       133.0000 161.2500 146.2500 Du        
  28777 ****       133.0000 161.2500 146.5000 Du        
  28778 ****       133.0000 161.2500 146.7500 Du        
  28779 ****       133.0000 161.2500 147.0000 Du        
  28780 ****       133.0000 161.5000 146.7500 Du        
  28781 ****       133.2500 121.0000 144.5000 Du        
  28782 ****       133.2500 121.0000 144.7500 Du        
  28783 ****       133.2500 121.0000 145.0000 Du        
  28784 ****       133.2500 121.0000 145.2500 Du        
  28785 ****       133.2500 121.0000 145.5000 Du        
  28786 ****       133.2500 121.0000 145.7500 Du        
  28787 ****       133.2500 121.0000 146.0000 Du        
  28788 ****       133.2500 121.0000 146.2500 Du        
  28789 ****       133.2500 121.2500 144.2500 Du        
  28790 ****       133.2500 121.2500 144.5000 Du        
  28791 ****       133.2500 121.2500 144.7500 Du        
  28792 ****       133.2500 121.2500 145.0000 Du        
  28793 ****       133.2500 121.2500 145.2500 Du        
  28794 ****       133.2500 121.2500 145.5000 Du        
  28795 ****       133.2500 121.2500 145.7500 Du        
  28796 ****       133.2500 121.2500 146.0000 Du        
  28797 ****       133.2500 121.5000 144.2500 Du        
  28798 ****       133.2500 121.5000 144.5000 Du        
  28799 ****       133.2500 121.5000 144.7500 Du        
  28800 ****       133.2500 121.5000 145.0000 Du        
  28801 ****       133.2500 121.5000 145.2500 Du        
  28802 ****       133.2500 121.5000 145.5000 Du        
  28803 ****       133.2500 121.5000 145.7500 Du        
  28804 ****       133.2500 121.5000 146.0000 Du        
  28805 ****       133.2500 121.7500 144.0000 Du        
  28806 ****       133.2500 121.7500 144.2500 Du        
  28807 ****       133.2500 121.7500 144.5000 Du        
  28808 ****       133.2500 121.7500 144.7500 Du        
  28809 ****       133.2500 121.7500 145.0000 Du        
  28810 ****       133.2500 121.7500 145.2500 Du        
  28811 ****       133.2500 121.7500 145.5000 Du        
  28812 ****       133.2500 121.7500 145.7500 Du        
  28813 ****       133.2500 121.7500 146.0000 Du        
  28814 ****       133.2500 122.0000 144.0000 Du        
  28815 ****       133.2500 122.0000 144.2500 Du        
  28816 ****       133.2500 122.0000 144.5000 Du        
  28817 ****       133.2500 122.0000 144.7500 Du        
  28818 ****       133.2500 122.0000 145.0000 Du        
  28819 ****       133.2500 122.0000 145.2500 Du        
  28820 ****       133.2500 122.0000 145.5000 Du        
  28821 ****       133.2500 122.0000 145.7500 Du        
  28822 ****       133.2500 122.0000 146.0000 Du        
  28823 ****       133.2500 122.2500 143.7500 Du        
  28824 ****       133.2500 122.2500 144.0000 Du        
  28825 ****       133.2500 122.2500 144.2500 Du        
  28826 ****       133.2500 122.2500 144.5000 Du        
  28827 ****       133.2500 122.2500 144.7500 Du        
  28828 ****       133.2500 122.2500 145.0000 Du        
  28829 ****       133.2500 122.2500 145.2500 Du        
  28830 ****       133.2500 122.2500 145.5000 Du        
  28831 ****       133.2500 122.2500 145.7500 Du        
  28832 ****       133.2500 122.2500 146.0000 Du        
  28833 ****       133.2500 122.5000 144.0000 Du        
  28834 ****       133.2500 122.5000 144.2500 Du        
  28835 ****       133.2500 122.5000 144.5000 Du        
  28836 ****       133.2500 122.5000 144.7500 Du        
  28837 ****       133.2500 122.5000 145.0000 Du        
  28838 ****       133.2500 122.5000 145.2500 Du        
  28839 ****       133.2500 122.5000 145.5000 Du        
  28840 ****       133.2500 122.5000 145.7500 Du        
  28841 ****       133.2500 122.7500 144.0000 Du        
  28842 ****       133.2500 122.7500 144.2500 Du        
  28843 ****       133.2500 122.7500 144.5000 Du        
  28844 ****       133.2500 122.7500 144.7500 Du        
  28845 ****       133.2500 122.7500 145.0000 Du        
  28846 ****       133.2500 122.7500 145.2500 Du        
  28847 ****       133.2500 122.7500 145.5000 Du        
  28848 ****       133.2500 122.7500 145.7500 Du        
  28849 ****       133.2500 123.0000 144.2500 Du        
  28850 ****       133.2500 123.0000 144.5000 Du        
  28851 ****       133.2500 123.0000 144.7500 Du        
  28852 ****       133.2500 123.0000 145.0000 Du        
  28853 ****       133.2500 123.0000 145.2500 Du        
  28854 ****       133.2500 127.7500 165.0000 Du        
  28855 ****       133.2500 127.7500 165.2500 Du        
  28856 ****       133.2500 127.7500 165.5000 Du        
  28857 ****       133.2500 128.0000 165.0000 Du        
  28858 ****       133.2500 128.0000 165.2500 Du        
  28859 ****       133.2500 128.0000 165.5000 Du        
  28860 ****       133.2500 128.2500 164.7500 Du        
  28861 ****       133.2500 128.2500 165.0000 Du        
  28862 ****       133.2500 128.2500 165.2500 Du        
  28863 ****       133.2500 128.2500 165.5000 Du        
  28864 ****       133.2500 128.5000 164.7500 Du        
  28865 ****       133.2500 128.5000 165.0000 Du        
  28866 ****       133.2500 128.5000 165.2500 Du        
  28867 ****       133.2500 128.5000 165.5000 Du        
  28868 ****       133.2500 128.7500 165.0000 Du        
  28869 ****       133.2500 128.7500 165.2500 Du        
  28870 ****       133.2500 136.5000  89.0000 Du        
  28871 ****       133.2500 136.5000  89.2500 Du        
  28872 ****       133.2500 136.5000  89.5000 Du        
  28873 ****       133.2500 136.7500  88.5000 Du        
  28874 ****       133.2500 136.7500  88.7500 Du        
  28875 ****       133.2500 136.7500  89.0000 Du        
  28876 ****       133.2500 136.7500  89.2500 Du        
  28877 ****       133.2500 136.7500  89.5000 Du        
  28878 ****       133.2500 136.7500  89.7500 Du        
  28879 ****       133.2500 136.7500  90.0000 Du        
  28880 ****       133.2500 136.7500  96.7500 Du        
  28881 ****       133.2500 137.0000  88.2500 Du        
  28882 ****       133.2500 137.0000  88.5000 Du        
  28883 ****       133.2500 137.0000  88.7500 Du        
  28884 ****       133.2500 137.0000  89.0000 Du        
  28885 ****       133.2500 137.0000  89.2500 Du        
  28886 ****       133.2500 137.0000  89.5000 Du        
  28887 ****       133.2500 137.0000  89.7500 Du        
  28888 ****       133.2500 137.0000  90.0000 Du        
  28889 ****       133.2500 137.0000  90.2500 Du        
  28890 ****       133.2500 137.0000  96.5000 Du        
  28891 ****       133.2500 137.0000  96.7500 Du        
  28892 ****       133.2500 137.2500  88.0000 Du        
  28893 ****       133.2500 137.2500  88.2500 Du        
  28894 ****       133.2500 137.2500  88.5000 Du        
  28895 ****       133.2500 137.2500  88.7500 Du        
  28896 ****       133.2500 137.2500  89.0000 Du        
  28897 ****       133.2500 137.2500  89.2500 Du        
  28898 ****       133.2500 137.2500  89.5000 Du        
  28899 ****       133.2500 137.2500  89.7500 Du        
  28900 ****       133.2500 137.2500  90.0000 Du        
  28901 ****       133.2500 137.2500  90.2500 Du        
  28902 ****       133.2500 137.2500  96.5000 Du        
  28903 ****       133.2500 137.2500  96.7500 Du        
  28904 ****       133.2500 137.5000  88.5000 Du        
  28905 ****       133.2500 137.5000  88.7500 Du        
  28906 ****       133.2500 137.5000  89.0000 Du        
  28907 ****       133.2500 137.5000  89.2500 Du        
  28908 ****       133.2500 137.5000  89.5000 Du        
  28909 ****       133.2500 137.5000  89.7500 Du        
  28910 ****       133.2500 137.5000  90.0000 Du        
  28911 ****       133.2500 137.5000  90.2500 Du        
  28912 ****       133.2500 137.5000  90.5000 Du        
  28913 ****       133.2500 137.5000  96.5000 Du        
  28914 ****       133.2500 137.5000  96.7500 Du        
  28915 ****       133.2500 137.7500  88.7500 Du        
  28916 ****       133.2500 137.7500  89.0000 Du        
  28917 ****       133.2500 137.7500  89.2500 Du        
  28918 ****       133.2500 137.7500  89.5000 Du        
  28919 ****       133.2500 137.7500  89.7500 Du        
  28920 ****       133.2500 137.7500  90.0000 Du        
  28921 ****       133.2500 137.7500  90.2500 Du        
  28922 ****       133.2500 137.7500  90.5000 Du        
  28923 ****       133.2500 137.7500  90.7500 Du        
  28924 ****       133.2500 137.7500  96.2500 Du        
  28925 ****       133.2500 137.7500  96.5000 Du        
  28926 ****       133.2500 137.7500  96.7500 Du        
  28927 ****       133.2500 137.7500  97.0000 Du        
  28928 ****       133.2500 138.0000  89.2500 Du        
  28929 ****       133.2500 138.0000  89.5000 Du        
  28930 ****       133.2500 138.0000  89.7500 Du        
  28931 ****       133.2500 138.0000  90.0000 Du        
  28932 ****       133.2500 138.0000  90.2500 Du        
  28933 ****       133.2500 138.0000  90.5000 Du        
  28934 ****       133.2500 138.0000  90.7500 Du        
  28935 ****       133.2500 138.0000  91.0000 Du        
  28936 ****       133.2500 138.0000  96.0000 Du        
  28937 ****       133.2500 138.0000  96.2500 Du        
  28938 ****       133.2500 138.0000  96.5000 Du        
  28939 ****       133.2500 138.0000  96.7500 Du        
  28940 ****       133.2500 138.0000  97.0000 Du        
  28941 ****       133.2500 138.0000 104.0000 Du        
  28942 ****       133.2500 138.0000 104.2500 Du        
  28943 ****       133.2500 138.0000 104.5000 Du        
  28944 ****       133.2500 138.0000 107.5000 Du        
  28945 ****       133.2500 138.0000 107.7500 Du        
  28946 ****       133.2500 138.2500  90.0000 Du        
  28947 ****       133.2500 138.2500  90.2500 Du        
  28948 ****       133.2500 138.2500  90.5000 Du        
  28949 ****       133.2500 138.2500  96.0000 Du        
  28950 ****       133.2500 138.2500  96.2500 Du        
  28951 ****       133.2500 138.2500  96.5000 Du        
  28952 ****       133.2500 138.2500  96.7500 Du        
  28953 ****       133.2500 138.2500  97.0000 Du        
  28954 ****       133.2500 138.2500 103.7500 Du        
  28955 ****       133.2500 138.2500 104.0000 Du        
  28956 ****       133.2500 138.2500 104.2500 Du        
  28957 ****       133.2500 138.2500 104.5000 Du        
  28958 ****       133.2500 138.2500 104.7500 Du        
  28959 ****       133.2500 138.2500 105.0000 Du        
  28960 ****       133.2500 138.2500 107.2500 Du        
  28961 ****       133.2500 138.2500 107.5000 Du        
  28962 ****       133.2500 138.2500 107.7500 Du        
  28963 ****       133.2500 138.5000  96.2500 Du        
  28964 ****       133.2500 138.5000  96.5000 Du        
  28965 ****       133.2500 138.5000  96.7500 Du        
  28966 ****       133.2500 138.5000  97.0000 Du        
  28967 ****       133.2500 138.5000 103.7500 Du        
  28968 ****       133.2500 138.5000 104.0000 Du        
  28969 ****       133.2500 138.5000 104.2500 Du        
  28970 ****       133.2500 138.5000 104.5000 Du        
  28971 ****       133.2500 138.5000 104.7500 Du        
  28972 ****       133.2500 138.5000 105.0000 Du        
  28973 ****       133.2500 138.5000 105.2500 Du        
  28974 ****       133.2500 138.5000 105.5000 Du        
  28975 ****       133.2500 138.5000 105.7500 Du        
  28976 ****       133.2500 138.5000 106.0000 Du        
  28977 ****       133.2500 138.5000 106.2500 Du        
  28978 ****       133.2500 138.7500  96.5000 Du        
  28979 ****       133.2500 138.7500  96.7500 Du        
  28980 ****       133.2500 138.7500  97.0000 Du        
  28981 ****       133.2500 138.7500 103.5000 Du        
  28982 ****       133.2500 138.7500 103.7500 Du        
  28983 ****       133.2500 138.7500 104.0000 Du        
  28984 ****       133.2500 138.7500 104.2500 Du        
  28985 ****       133.2500 138.7500 104.5000 Du        
  28986 ****       133.2500 138.7500 104.7500 Du        
  28987 ****       133.2500 138.7500 105.0000 Du        
  28988 ****       133.2500 138.7500 105.2500 Du        
  28989 ****       133.2500 138.7500 105.5000 Du        
  28990 ****       133.2500 138.7500 105.7500 Du        
  28991 ****       133.2500 138.7500 106.0000 Du        
  28992 ****       133.2500 138.7500 106.2500 Du        
  28993 ****       133.2500 139.0000  96.5000 Du        
  28994 ****       133.2500 139.0000  96.7500 Du        
  28995 ****       133.2500 139.0000  97.0000 Du        
  28996 ****       133.2500 139.0000 103.2500 Du        
  28997 ****       133.2500 139.0000 103.5000 Du        
  28998 ****       133.2500 139.0000 103.7500 Du        
  28999 ****       133.2500 139.0000 104.0000 Du        
  29000 ****       133.2500 139.0000 104.2500 Du        
  29001 ****       133.2500 139.0000 104.5000 Du        
  29002 ****       133.2500 139.0000 104.7500 Du        
  29003 ****       133.2500 139.0000 105.0000 Du        
  29004 ****       133.2500 139.0000 105.2500 Du        
  29005 ****       133.2500 139.0000 105.5000 Du        
  29006 ****       133.2500 139.0000 105.7500 Du        
  29007 ****       133.2500 139.0000 106.0000 Du        
  29008 ****       133.2500 139.2500 103.2500 Du        
  29009 ****       133.2500 139.2500 103.5000 Du        
  29010 ****       133.2500 139.2500 103.7500 Du        
  29011 ****       133.2500 139.2500 104.0000 Du        
  29012 ****       133.2500 139.2500 104.2500 Du        
  29013 ****       133.2500 139.2500 104.5000 Du        
  29014 ****       133.2500 139.2500 104.7500 Du        
  29015 ****       133.2500 139.2500 105.0000 Du        
  29016 ****       133.2500 139.2500 105.2500 Du        
  29017 ****       133.2500 139.2500 105.5000 Du        
  29018 ****       133.2500 139.2500 105.7500 Du        
  29019 ****       133.2500 139.5000 103.7500 Du        
  29020 ****       133.2500 139.5000 104.0000 Du        
  29021 ****       133.2500 139.5000 104.2500 Du        
  29022 ****       133.2500 139.5000 104.5000 Du        
  29023 ****       133.2500 139.5000 104.7500 Du        
  29024 ****       133.2500 139.5000 105.0000 Du        
  29025 ****       133.2500 139.5000 105.2500 Du        
  29026 ****       133.2500 143.0000 130.2500 Du        
  29027 ****       133.2500 143.0000 130.5000 Du        
  29028 ****       133.2500 143.0000 130.7500 Du        
  29029 ****       133.2500 143.0000 131.0000 Du        
  29030 ****       133.2500 143.2500 126.5000 Du        
  29031 ****       133.2500 143.2500 126.7500 Du        
  29032 ****       133.2500 143.2500 127.0000 Du        
  29033 ****       133.2500 143.2500 127.2500 Du        
  29034 ****       133.2500 143.2500 130.0000 Du        
  29035 ****       133.2500 143.2500 130.2500 Du        
  29036 ****       133.2500 143.2500 130.5000 Du        
  29037 ****       133.2500 143.2500 130.7500 Du        
  29038 ****       133.2500 143.2500 131.0000 Du        
  29039 ****       133.2500 143.2500 131.2500 Du        
  29040 ****       133.2500 143.5000 126.2500 Du        
  29041 ****       133.2500 143.5000 126.5000 Du        
  29042 ****       133.2500 143.5000 126.7500 Du        
  29043 ****       133.2500 143.5000 127.0000 Du        
  29044 ****       133.2500 143.5000 127.2500 Du        
  29045 ****       133.2500 143.5000 130.0000 Du        
  29046 ****       133.2500 143.5000 130.2500 Du        
  29047 ****       133.2500 143.5000 130.5000 Du        
  29048 ****       133.2500 143.5000 130.7500 Du        
  29049 ****       133.2500 143.5000 131.0000 Du        
  29050 ****       133.2500 143.5000 131.2500 Du        
  29051 ****       133.2500 143.7500 126.2500 Du        
  29052 ****       133.2500 143.7500 126.5000 Du        
  29053 ****       133.2500 143.7500 126.7500 Du        
  29054 ****       133.2500 143.7500 127.0000 Du        
  29055 ****       133.2500 143.7500 127.2500 Du        
  29056 ****       133.2500 143.7500 129.7500 Du        
  29057 ****       133.2500 143.7500 130.0000 Du        
  29058 ****       133.2500 143.7500 130.2500 Du        
  29059 ****       133.2500 143.7500 130.5000 Du        
  29060 ****       133.2500 143.7500 130.7500 Du        
  29061 ****       133.2500 143.7500 131.0000 Du        
  29062 ****       133.2500 143.7500 131.2500 Du        
  29063 ****       133.2500 144.0000 126.2500 Du        
  29064 ****       133.2500 144.0000 126.5000 Du        
  29065 ****       133.2500 144.0000 126.7500 Du        
  29066 ****       133.2500 144.0000 127.0000 Du        
  29067 ****       133.2500 144.0000 127.2500 Du        
  29068 ****       133.2500 144.0000 129.2500 Du        
  29069 ****       133.2500 144.0000 129.5000 Du        
  29070 ****       133.2500 144.0000 129.7500 Du        
  29071 ****       133.2500 144.0000 130.0000 Du        
  29072 ****       133.2500 144.0000 130.2500 Du        
  29073 ****       133.2500 144.0000 130.5000 Du        
  29074 ****       133.2500 144.0000 130.7500 Du        
  29075 ****       133.2500 144.0000 131.0000 Du        
  29076 ****       133.2500 144.0000 131.2500 Du        
  29077 ****       133.2500 144.2500 126.2500 Du        
  29078 ****       133.2500 144.2500 126.5000 Du        
  29079 ****       133.2500 144.2500 126.7500 Du        
  29080 ****       133.2500 144.2500 127.0000 Du        
  29081 ****       133.2500 144.2500 127.2500 Du        
  29082 ****       133.2500 144.2500 129.2500 Du        
  29083 ****       133.2500 144.2500 129.7500 Du        
  29084 ****       133.2500 144.2500 130.0000 Du        
  29085 ****       133.2500 144.2500 130.2500 Du        
  29086 ****       133.2500 144.2500 130.5000 Du        
  29087 ****       133.2500 144.2500 130.7500 Du        
  29088 ****       133.2500 144.2500 131.0000 Du        
  29089 ****       133.2500 144.5000 126.2500 Du        
  29090 ****       133.2500 144.5000 126.5000 Du        
  29091 ****       133.2500 144.7500 126.2500 Du        
  29092 ****       133.2500 154.2500 108.0000 Du        
  29093 ****       133.2500 154.2500 108.2500 Du        
  29094 ****       133.2500 154.2500 108.5000 Du        
  29095 ****       133.2500 154.2500 108.7500 Du        
  29096 ****       133.2500 154.2500 109.0000 Du        
  29097 ****       133.2500 154.2500 109.2500 Du        
  29098 ****       133.2500 154.5000 107.7500 Du        
  29099 ****       133.2500 154.5000 108.0000 Du        
  29100 ****       133.2500 154.5000 108.2500 Du        
  29101 ****       133.2500 154.5000 108.5000 Du        
  29102 ****       133.2500 154.5000 108.7500 Du        
  29103 ****       133.2500 154.5000 109.0000 Du        
  29104 ****       133.2500 154.5000 109.2500 Du        
  29105 ****       133.2500 154.5000 109.5000 Du        
  29106 ****       133.2500 154.7500 107.7500 Du        
  29107 ****       133.2500 154.7500 108.0000 Du        
  29108 ****       133.2500 154.7500 108.2500 Du        
  29109 ****       133.2500 154.7500 108.5000 Du        
  29110 ****       133.2500 154.7500 108.7500 Du        
  29111 ****       133.2500 154.7500 109.0000 Du        
  29112 ****       133.2500 154.7500 109.2500 Du        
  29113 ****       133.2500 154.7500 109.5000 Du        
  29114 ****       133.2500 154.7500 109.7500 Du        
  29115 ****       133.2500 155.0000 107.7500 Du        
  29116 ****       133.2500 155.0000 108.0000 Du        
  29117 ****       133.2500 155.0000 108.2500 Du        
  29118 ****       133.2500 155.0000 108.5000 Du        
  29119 ****       133.2500 155.0000 108.7500 Du        
  29120 ****       133.2500 155.0000 109.0000 Du        
  29121 ****       133.2500 155.0000 109.2500 Du        
  29122 ****       133.2500 155.2500 107.7500 Du        
  29123 ****       133.2500 155.2500 108.0000 Du        
  29124 ****       133.2500 160.5000 146.0000 Du        
  29125 ****       133.2500 160.5000 146.2500 Du        
  29126 ****       133.2500 160.7500 146.0000 Du        
  29127 ****       133.2500 160.7500 146.2500 Du        
  29128 ****       133.2500 160.7500 146.5000 Du        
  29129 ****       133.2500 161.0000 146.2500 Du        
  29130 ****       133.2500 161.0000 146.5000 Du        
  29131 ****       133.2500 161.0000 146.7500 Du        
  29132 ****       133.2500 161.2500 146.2500 Du        
  29133 ****       133.2500 161.2500 146.5000 Du        
  29134 ****       133.2500 161.2500 146.7500 Du        
  29135 ****       133.5000 121.0000 144.5000 Du        
  29136 ****       133.5000 121.0000 144.7500 Du        
  29137 ****       133.5000 121.0000 145.0000 Du        
  29138 ****       133.5000 121.0000 145.2500 Du        
  29139 ****       133.5000 121.0000 145.5000 Du        
  29140 ****       133.5000 121.0000 145.7500 Du        
  29141 ****       133.5000 121.0000 146.0000 Du        
  29142 ****       133.5000 121.0000 146.2500 Du        
  29143 ****       133.5000 121.2500 144.5000 Du        
  29144 ****       133.5000 121.2500 144.7500 Du        
  29145 ****       133.5000 121.2500 145.0000 Du        
  29146 ****       133.5000 121.2500 145.2500 Du        
  29147 ****       133.5000 121.2500 145.5000 Du        
  29148 ****       133.5000 121.2500 145.7500 Du        
  29149 ****       133.5000 121.2500 146.0000 Du        
  29150 ****       133.5000 121.2500 146.2500 Du        
  29151 ****       133.5000 121.5000 144.2500 Du        
  29152 ****       133.5000 121.5000 144.5000 Du        
  29153 ****       133.5000 121.5000 144.7500 Du        
  29154 ****       133.5000 121.5000 145.0000 Du        
  29155 ****       133.5000 121.5000 145.2500 Du        
  29156 ****       133.5000 121.5000 145.5000 Du        
  29157 ****       133.5000 121.5000 145.7500 Du        
  29158 ****       133.5000 121.5000 146.0000 Du        
  29159 ****       133.5000 121.5000 146.2500 Du        
  29160 ****       133.5000 121.7500 144.2500 Du        
  29161 ****       133.5000 121.7500 144.5000 Du        
  29162 ****       133.5000 121.7500 144.7500 Du        
  29163 ****       133.5000 121.7500 145.0000 Du        
  29164 ****       133.5000 121.7500 145.2500 Du        
  29165 ****       133.5000 121.7500 145.5000 Du        
  29166 ****       133.5000 121.7500 145.7500 Du        
  29167 ****       133.5000 121.7500 146.0000 Du        
  29168 ****       133.5000 121.7500 146.2500 Du        
  29169 ****       133.5000 122.0000 144.0000 Du        
  29170 ****       133.5000 122.0000 144.2500 Du        
  29171 ****       133.5000 122.0000 144.5000 Du        
  29172 ****       133.5000 122.0000 144.7500 Du        
  29173 ****       133.5000 122.0000 145.0000 Du        
  29174 ****       133.5000 122.0000 145.2500 Du        
  29175 ****       133.5000 122.0000 145.5000 Du        
  29176 ****       133.5000 122.0000 145.7500 Du        
  29177 ****       133.5000 122.0000 146.0000 Du        
  29178 ****       133.5000 122.0000 146.2500 Du        
  29179 ****       133.5000 122.2500 144.0000 Du        
  29180 ****       133.5000 122.2500 144.2500 Du        
  29181 ****       133.5000 122.2500 144.5000 Du        
  29182 ****       133.5000 122.2500 144.7500 Du        
  29183 ****       133.5000 122.2500 145.0000 Du        
  29184 ****       133.5000 122.2500 145.2500 Du        
  29185 ****       133.5000 122.2500 145.5000 Du        
  29186 ****       133.5000 122.2500 145.7500 Du        
  29187 ****       133.5000 122.2500 146.0000 Du        
  29188 ****       133.5000 122.5000 144.0000 Du        
  29189 ****       133.5000 122.5000 144.2500 Du        
  29190 ****       133.5000 122.5000 144.5000 Du        
  29191 ****       133.5000 122.5000 144.7500 Du        
  29192 ****       133.5000 122.5000 145.0000 Du        
  29193 ****       133.5000 122.5000 145.2500 Du        
  29194 ****       133.5000 122.5000 145.5000 Du        
  29195 ****       133.5000 122.5000 145.7500 Du        
  29196 ****       133.5000 122.7500 144.2500 Du        
  29197 ****       133.5000 122.7500 144.5000 Du        
  29198 ****       133.5000 122.7500 144.7500 Du        
  29199 ****       133.5000 122.7500 145.0000 Du        
  29200 ****       133.5000 122.7500 145.2500 Du        
  29201 ****       133.5000 123.0000 144.5000 Du        
  29202 ****       133.5000 123.0000 144.7500 Du        
  29203 ****       133.5000 127.7500 165.2500 Du        
  29204 ****       133.5000 128.0000 165.0000 Du        
  29205 ****       133.5000 128.0000 165.2500 Du        
  29206 ****       133.5000 128.2500 164.7500 Du        
  29207 ****       133.5000 128.2500 165.0000 Du        
  29208 ****       133.5000 128.2500 165.2500 Du        
  29209 ****       133.5000 128.5000 164.7500 Du        
  29210 ****       133.5000 128.5000 165.0000 Du        
  29211 ****       133.5000 128.5000 165.2500 Du        
  29212 ****       133.5000 128.7500 164.7500 Du        
  29213 ****       133.5000 128.7500 165.0000 Du        
  29214 ****       133.5000 136.5000  89.2500 Du        
  29215 ****       133.5000 136.5000  89.5000 Du        
  29216 ****       133.5000 136.5000  89.7500 Du        
  29217 ****       133.5000 136.7500  88.7500 Du        
  29218 ****       133.5000 136.7500  89.0000 Du        
  29219 ****       133.5000 136.7500  89.2500 Du        
  29220 ****       133.5000 136.7500  89.5000 Du        
  29221 ****       133.5000 136.7500  89.7500 Du        
  29222 ****       133.5000 136.7500  90.0000 Du        
  29223 ****       133.5000 137.0000  88.5000 Du        
  29224 ****       133.5000 137.0000  88.7500 Du        
  29225 ****       133.5000 137.0000  89.0000 Du        
  29226 ****       133.5000 137.0000  89.2500 Du        
  29227 ****       133.5000 137.0000  89.5000 Du        
  29228 ****       133.5000 137.0000  89.7500 Du        
  29229 ****       133.5000 137.0000  90.0000 Du        
  29230 ****       133.5000 137.0000  90.2500 Du        
  29231 ****       133.5000 137.0000  96.7500 Du        
  29232 ****       133.5000 137.2500  88.2500 Du        
  29233 ****       133.5000 137.2500  88.5000 Du        
  29234 ****       133.5000 137.2500  88.7500 Du        
  29235 ****       133.5000 137.2500  89.0000 Du        
  29236 ****       133.5000 137.2500  89.2500 Du        
  29237 ****       133.5000 137.2500  89.5000 Du        
  29238 ****       133.5000 137.2500  89.7500 Du        
  29239 ****       133.5000 137.2500  90.0000 Du        
  29240 ****       133.5000 137.2500  90.2500 Du        
  29241 ****       133.5000 137.2500  96.5000 Du        
  29242 ****       133.5000 137.2500  96.7500 Du        
  29243 ****       133.5000 137.5000  88.7500 Du        
  29244 ****       133.5000 137.5000  89.0000 Du        
  29245 ****       133.5000 137.5000  89.2500 Du        
  29246 ****       133.5000 137.5000  89.5000 Du        
  29247 ****       133.5000 137.5000  89.7500 Du        
  29248 ****       133.5000 137.5000  90.0000 Du        
  29249 ****       133.5000 137.5000  90.2500 Du        
  29250 ****       133.5000 137.5000  90.5000 Du        
  29251 ****       133.5000 137.5000  96.5000 Du        
  29252 ****       133.5000 137.5000  96.7500 Du        
  29253 ****       133.5000 137.7500  89.0000 Du        
  29254 ****       133.5000 137.7500  89.2500 Du        
  29255 ****       133.5000 137.7500  89.5000 Du        
  29256 ****       133.5000 137.7500  89.7500 Du        
  29257 ****       133.5000 137.7500  90.0000 Du        
  29258 ****       133.5000 137.7500  90.2500 Du        
  29259 ****       133.5000 137.7500  90.5000 Du        
  29260 ****       133.5000 137.7500  90.7500 Du        
  29261 ****       133.5000 137.7500  96.5000 Du        
  29262 ****       133.5000 137.7500  96.7500 Du        
  29263 ****       133.5000 137.7500  97.0000 Du        
  29264 ****       133.5000 137.7500 104.0000 Du        
  29265 ****       133.5000 137.7500 104.2500 Du        
  29266 ****       133.5000 137.7500 104.5000 Du        
  29267 ****       133.5000 138.0000  89.5000 Du        
  29268 ****       133.5000 138.0000  89.7500 Du        
  29269 ****       133.5000 138.0000  90.0000 Du        
  29270 ****       133.5000 138.0000  90.2500 Du        
  29271 ****       133.5000 138.0000  90.5000 Du        
  29272 ****       133.5000 138.0000  90.7500 Du        
  29273 ****       133.5000 138.0000  91.0000 Du        
  29274 ****       133.5000 138.0000  96.2500 Du        
  29275 ****       133.5000 138.0000  96.5000 Du        
  29276 ****       133.5000 138.0000  96.7500 Du        
  29277 ****       133.5000 138.0000  97.0000 Du        
  29278 ****       133.5000 138.0000 103.7500 Du        
  29279 ****       133.5000 138.0000 104.0000 Du        
  29280 ****       133.5000 138.0000 104.2500 Du        
  29281 ****       133.5000 138.0000 104.5000 Du        
  29282 ****       133.5000 138.0000 104.7500 Du        
  29283 ****       133.5000 138.0000 105.0000 Du        
  29284 ****       133.5000 138.0000 107.2500 Du        
  29285 ****       133.5000 138.0000 107.5000 Du        
  29286 ****       133.5000 138.2500  90.0000 Du        
  29287 ****       133.5000 138.2500  90.2500 Du        
  29288 ****       133.5000 138.2500  90.5000 Du        
  29289 ****       133.5000 138.2500  96.0000 Du        
  29290 ****       133.5000 138.2500  96.2500 Du        
  29291 ****       133.5000 138.2500  96.5000 Du        
  29292 ****       133.5000 138.2500  96.7500 Du        
  29293 ****       133.5000 138.2500  97.0000 Du        
  29294 ****       133.5000 138.2500 103.5000 Du        
  29295 ****       133.5000 138.2500 103.7500 Du        
  29296 ****       133.5000 138.2500 104.0000 Du        
  29297 ****       133.5000 138.2500 104.2500 Du        
  29298 ****       133.5000 138.2500 104.5000 Du        
  29299 ****       133.5000 138.2500 104.7500 Du        
  29300 ****       133.5000 138.2500 105.0000 Du        
  29301 ****       133.5000 138.2500 105.2500 Du        
  29302 ****       133.5000 138.2500 105.5000 Du        
  29303 ****       133.5000 138.2500 105.7500 Du        
  29304 ****       133.5000 138.2500 106.0000 Du        
  29305 ****       133.5000 138.2500 106.2500 Du        
  29306 ****       133.5000 138.2500 106.7500 Du        
  29307 ****       133.5000 138.2500 107.0000 Du        
  29308 ****       133.5000 138.2500 107.2500 Du        
  29309 ****       133.5000 138.5000  96.2500 Du        
  29310 ****       133.5000 138.5000  96.5000 Du        
  29311 ****       133.5000 138.5000  96.7500 Du        
  29312 ****       133.5000 138.5000  97.0000 Du        
  29313 ****       133.5000 138.5000 103.5000 Du        
  29314 ****       133.5000 138.5000 103.7500 Du        
  29315 ****       133.5000 138.5000 104.0000 Du        
  29316 ****       133.5000 138.5000 104.2500 Du        
  29317 ****       133.5000 138.5000 104.5000 Du        
  29318 ****       133.5000 138.5000 104.7500 Du        
  29319 ****       133.5000 138.5000 105.0000 Du        
  29320 ****       133.5000 138.5000 105.2500 Du        
  29321 ****       133.5000 138.5000 105.5000 Du        
  29322 ****       133.5000 138.5000 105.7500 Du        
  29323 ****       133.5000 138.5000 106.0000 Du        
  29324 ****       133.5000 138.5000 106.2500 Du        
  29325 ****       133.5000 138.7500  96.2500 Du        
  29326 ****       133.5000 138.7500  96.5000 Du        
  29327 ****       133.5000 138.7500  96.7500 Du        
  29328 ****       133.5000 138.7500  97.0000 Du        
  29329 ****       133.5000 138.7500 103.2500 Du        
  29330 ****       133.5000 138.7500 103.5000 Du        
  29331 ****       133.5000 138.7500 103.7500 Du        
  29332 ****       133.5000 138.7500 104.0000 Du        
  29333 ****       133.5000 138.7500 104.2500 Du        
  29334 ****       133.5000 138.7500 104.5000 Du        
  29335 ****       133.5000 138.7500 104.7500 Du        
  29336 ****       133.5000 138.7500 105.0000 Du        
  29337 ****       133.5000 138.7500 105.2500 Du        
  29338 ****       133.5000 138.7500 105.5000 Du        
  29339 ****       133.5000 138.7500 105.7500 Du        
  29340 ****       133.5000 138.7500 106.0000 Du        
  29341 ****       133.5000 139.0000  96.5000 Du        
  29342 ****       133.5000 139.0000  96.7500 Du        
  29343 ****       133.5000 139.0000  97.0000 Du        
  29344 ****       133.5000 139.0000 103.2500 Du        
  29345 ****       133.5000 139.0000 103.5000 Du        
  29346 ****       133.5000 139.0000 103.7500 Du        
  29347 ****       133.5000 139.0000 104.0000 Du        
  29348 ****       133.5000 139.0000 104.2500 Du        
  29349 ****       133.5000 139.0000 104.5000 Du        
  29350 ****       133.5000 139.0000 104.7500 Du        
  29351 ****       133.5000 139.0000 105.0000 Du        
  29352 ****       133.5000 139.0000 105.2500 Du        
  29353 ****       133.5000 139.0000 105.5000 Du        
  29354 ****       133.5000 139.0000 105.7500 Du        
  29355 ****       133.5000 139.2500 103.2500 Du        
  29356 ****       133.5000 139.2500 103.5000 Du        
  29357 ****       133.5000 139.2500 103.7500 Du        
  29358 ****       133.5000 139.2500 104.0000 Du        
  29359 ****       133.5000 139.2500 104.2500 Du        
  29360 ****       133.5000 139.2500 104.5000 Du        
  29361 ****       133.5000 139.2500 104.7500 Du        
  29362 ****       133.5000 139.2500 105.0000 Du        
  29363 ****       133.5000 139.2500 105.2500 Du        
  29364 ****       133.5000 139.2500 105.5000 Du        
  29365 ****       133.5000 139.5000 104.0000 Du        
  29366 ****       133.5000 139.5000 104.2500 Du        
  29367 ****       133.5000 139.5000 104.5000 Du        
  29368 ****       133.5000 139.5000 104.7500 Du        
  29369 ****       133.5000 142.7500 130.2500 Du        
  29370 ****       133.5000 142.7500 130.5000 Du        
  29371 ****       133.5000 143.0000 126.7500 Du        
  29372 ****       133.5000 143.0000 127.0000 Du        
  29373 ****       133.5000 143.0000 127.2500 Du        
  29374 ****       133.5000 143.0000 127.5000 Du        
  29375 ****       133.5000 143.0000 129.7500 Du        
  29376 ****       133.5000 143.0000 130.0000 Du        
  29377 ****       133.5000 143.0000 130.2500 Du        
  29378 ****       133.5000 143.0000 130.5000 Du        
  29379 ****       133.5000 143.0000 130.7500 Du        
  29380 ****       133.5000 143.0000 131.0000 Du        
  29381 ****       133.5000 143.2500 126.2500 Du        
  29382 ****       133.5000 143.2500 126.5000 Du        
  29383 ****       133.5000 143.2500 126.7500 Du        
  29384 ****       133.5000 143.2500 127.0000 Du        
  29385 ****       133.5000 143.2500 127.2500 Du        
  29386 ****       133.5000 143.2500 127.5000 Du        
  29387 ****       133.5000 143.2500 127.7500 Du        
  29388 ****       133.5000 143.2500 128.0000 Du        
  29389 ****       133.5000 143.2500 129.2500 Du        
  29390 ****       133.5000 143.2500 129.5000 Du        
  29391 ****       133.5000 143.2500 129.7500 Du        
  29392 ****       133.5000 143.2500 130.0000 Du        
  29393 ****       133.5000 143.2500 130.2500 Du        
  29394 ****       133.5000 143.2500 130.5000 Du        
  29395 ****       133.5000 143.2500 130.7500 Du        
  29396 ****       133.5000 143.2500 131.0000 Du        
  29397 ****       133.5000 143.2500 131.2500 Du        
  29398 ****       133.5000 143.5000 126.2500 Du        
  29399 ****       133.5000 143.5000 126.5000 Du        
  29400 ****       133.5000 143.5000 126.7500 Du        
  29401 ****       133.5000 143.5000 127.0000 Du        
  29402 ****       133.5000 143.5000 127.2500 Du        
  29403 ****       133.5000 143.5000 127.5000 Du        
  29404 ****       133.5000 143.5000 127.7500 Du        
  29405 ****       133.5000 143.5000 128.0000 Du        
  29406 ****       133.5000 143.5000 128.2500 Du        
  29407 ****       133.5000 143.5000 129.0000 Du        
  29408 ****       133.5000 143.5000 129.2500 Du        
  29409 ****       133.5000 143.5000 129.5000 Du        
  29410 ****       133.5000 143.5000 129.7500 Du        
  29411 ****       133.5000 143.5000 130.0000 Du        
  29412 ****       133.5000 143.5000 130.2500 Du        
  29413 ****       133.5000 143.5000 130.5000 Du        
  29414 ****       133.5000 143.5000 130.7500 Du        
  29415 ****       133.5000 143.5000 131.0000 Du        
  29416 ****       133.5000 143.5000 131.2500 Du        
  29417 ****       133.5000 143.7500 126.2500 Du        
  29418 ****       133.5000 143.7500 126.5000 Du        
  29419 ****       133.5000 143.7500 126.7500 Du        
  29420 ****       133.5000 143.7500 127.0000 Du        
  29421 ****       133.5000 143.7500 127.2500 Du        
  29422 ****       133.5000 143.7500 127.5000 Du        
  29423 ****       133.5000 143.7500 127.7500 Du        
  29424 ****       133.5000 143.7500 128.0000 Du        
  29425 ****       133.5000 143.7500 128.2500 Du        
  29426 ****       133.5000 143.7500 128.5000 Du        
  29427 ****       133.5000 143.7500 128.7500 Du        
  29428 ****       133.5000 143.7500 129.0000 Du        
  29429 ****       133.5000 143.7500 129.2500 Du        
  29430 ****       133.5000 143.7500 129.5000 Du        
  29431 ****       133.5000 143.7500 129.7500 Du        
  29432 ****       133.5000 143.7500 130.0000 Du        
  29433 ****       133.5000 143.7500 130.2500 Du        
  29434 ****       133.5000 143.7500 130.5000 Du        
  29435 ****       133.5000 143.7500 130.7500 Du        
  29436 ****       133.5000 143.7500 131.0000 Du        
  29437 ****       133.5000 143.7500 131.2500 Du        
  29438 ****       133.5000 143.7500 131.5000 Du        
  29439 ****       133.5000 144.0000 126.2500 Du        
  29440 ****       133.5000 144.0000 126.5000 Du        
  29441 ****       133.5000 144.0000 126.7500 Du        
  29442 ****       133.5000 144.0000 127.0000 Du        
  29443 ****       133.5000 144.0000 127.2500 Du        
  29444 ****       133.5000 144.0000 127.5000 Du        
  29445 ****       133.5000 144.0000 127.7500 Du        
  29446 ****       133.5000 144.0000 128.0000 Du        
  29447 ****       133.5000 144.0000 128.7500 Du        
  29448 ****       133.5000 144.0000 129.0000 Du        
  29449 ****       133.5000 144.0000 129.2500 Du        
  29450 ****       133.5000 144.0000 129.5000 Du        
  29451 ****       133.5000 144.0000 129.7500 Du        
  29452 ****       133.5000 144.0000 130.0000 Du        
  29453 ****       133.5000 144.0000 130.2500 Du        
  29454 ****       133.5000 144.0000 130.5000 Du        
  29455 ****       133.5000 144.0000 130.7500 Du        
  29456 ****       133.5000 144.0000 131.0000 Du        
  29457 ****       133.5000 144.0000 131.2500 Du        
  29458 ****       133.5000 144.0000 131.5000 Du        
  29459 ****       133.5000 144.0000 131.7500 Du        
  29460 ****       133.5000 144.2500 126.2500 Du        
  29461 ****       133.5000 144.2500 126.5000 Du        
  29462 ****       133.5000 144.2500 126.7500 Du        
  29463 ****       133.5000 144.2500 127.0000 Du        
  29464 ****       133.5000 144.2500 127.2500 Du        
  29465 ****       133.5000 144.2500 129.5000 Du        
  29466 ****       133.5000 144.2500 129.7500 Du        
  29467 ****       133.5000 144.2500 130.0000 Du        
  29468 ****       133.5000 144.2500 130.2500 Du        
  29469 ****       133.5000 144.2500 130.5000 Du        
  29470 ****       133.5000 144.2500 130.7500 Du        
  29471 ****       133.5000 144.2500 131.0000 Du        
  29472 ****       133.5000 144.2500 131.2500 Du        
  29473 ****       133.5000 144.5000 126.2500 Du        
  29474 ****       133.5000 154.0000 108.0000 Du        
  29475 ****       133.5000 154.0000 108.2500 Du        
  29476 ****       133.5000 154.0000 108.5000 Du        
  29477 ****       133.5000 154.0000 108.7500 Du        
  29478 ****       133.5000 154.0000 109.0000 Du        
  29479 ****       133.5000 154.0000 109.2500 Du        
  29480 ****       133.5000 154.2500 107.7500 Du        
  29481 ****       133.5000 154.2500 108.0000 Du        
  29482 ****       133.5000 154.2500 108.2500 Du        
  29483 ****       133.5000 154.2500 108.5000 Du        
  29484 ****       133.5000 154.2500 108.7500 Du        
  29485 ****       133.5000 154.2500 109.0000 Du        
  29486 ****       133.5000 154.2500 109.2500 Du        
  29487 ****       133.5000 154.2500 109.5000 Du        
  29488 ****       133.5000 154.5000 107.7500 Du        
  29489 ****       133.5000 154.5000 108.0000 Du        
  29490 ****       133.5000 154.5000 108.2500 Du        
  29491 ****       133.5000 154.5000 108.5000 Du        
  29492 ****       133.5000 154.5000 108.7500 Du        
  29493 ****       133.5000 154.5000 109.0000 Du        
  29494 ****       133.5000 154.5000 109.2500 Du        
  29495 ****       133.5000 154.7500 107.7500 Du        
  29496 ****       133.5000 154.7500 108.0000 Du        
  29497 ****       133.5000 154.7500 108.2500 Du        
  29498 ****       133.5000 154.7500 108.5000 Du        
  29499 ****       133.5000 154.7500 108.7500 Du        
  29500 ****       133.5000 154.7500 109.0000 Du        
  29501 ****       133.5000 154.7500 109.2500 Du        
  29502 ****       133.5000 154.7500 109.5000 Du        
  29503 ****       133.5000 155.0000 107.5000 Du        
  29504 ****       133.5000 155.0000 107.7500 Du        
  29505 ****       133.5000 155.0000 108.0000 Du        
  29506 ****       133.5000 155.0000 108.2500 Du        
  29507 ****       133.5000 155.0000 108.5000 Du        
  29508 ****       133.5000 155.0000 108.7500 Du        
  29509 ****       133.5000 155.0000 109.0000 Du        
  29510 ****       133.5000 155.0000 109.2500 Du        
  29511 ****       133.5000 155.2500 107.5000 Du        
  29512 ****       133.5000 155.2500 107.7500 Du        
  29513 ****       133.5000 155.2500 108.0000 Du        
  29514 ****       133.5000 155.2500 108.2500 Du        
  29515 ****       133.7500 121.0000 144.7500 Du        
  29516 ****       133.7500 121.0000 145.0000 Du        
  29517 ****       133.7500 121.0000 145.2500 Du        
  29518 ****       133.7500 121.0000 145.5000 Du        
  29519 ****       133.7500 121.0000 145.7500 Du        
  29520 ****       133.7500 121.0000 146.0000 Du        
  29521 ****       133.7500 121.0000 146.2500 Du        
  29522 ****       133.7500 121.0000 146.5000 Du        
  29523 ****       133.7500 121.2500 144.5000 Du        
  29524 ****       133.7500 121.2500 144.7500 Du        
  29525 ****       133.7500 121.2500 145.0000 Du        
  29526 ****       133.7500 121.2500 145.2500 Du        
  29527 ****       133.7500 121.2500 145.5000 Du        
  29528 ****       133.7500 121.2500 145.7500 Du        
  29529 ****       133.7500 121.2500 146.0000 Du        
  29530 ****       133.7500 121.2500 146.2500 Du        
  29531 ****       133.7500 121.2500 146.5000 Du        
  29532 ****       133.7500 121.5000 144.5000 Du        
  29533 ****       133.7500 121.5000 144.7500 Du        
  29534 ****       133.7500 121.5000 145.0000 Du        
  29535 ****       133.7500 121.5000 145.2500 Du        
  29536 ****       133.7500 121.5000 145.5000 Du        
  29537 ****       133.7500 121.5000 145.7500 Du        
  29538 ****       133.7500 121.5000 146.0000 Du        
  29539 ****       133.7500 121.5000 146.2500 Du        
  29540 ****       133.7500 121.5000 146.5000 Du        
  29541 ****       133.7500 121.7500 144.2500 Du        
  29542 ****       133.7500 121.7500 144.5000 Du        
  29543 ****       133.7500 121.7500 144.7500 Du        
  29544 ****       133.7500 121.7500 145.0000 Du        
  29545 ****       133.7500 121.7500 145.2500 Du        
  29546 ****       133.7500 121.7500 145.5000 Du        
  29547 ****       133.7500 121.7500 145.7500 Du        
  29548 ****       133.7500 121.7500 146.0000 Du        
  29549 ****       133.7500 121.7500 146.2500 Du        
  29550 ****       133.7500 121.7500 146.5000 Du        
  29551 ****       133.7500 122.0000 144.2500 Du        
  29552 ****       133.7500 122.0000 144.5000 Du        
  29553 ****       133.7500 122.0000 144.7500 Du        
  29554 ****       133.7500 122.0000 145.0000 Du        
  29555 ****       133.7500 122.0000 145.2500 Du        
  29556 ****       133.7500 122.0000 145.5000 Du        
  29557 ****       133.7500 122.0000 145.7500 Du        
  29558 ****       133.7500 122.0000 146.0000 Du        
  29559 ****       133.7500 122.0000 146.2500 Du        
  29560 ****       133.7500 122.0000 146.5000 Du        
  29561 ****       133.7500 122.2500 144.2500 Du        
  29562 ****       133.7500 122.2500 144.5000 Du        
  29563 ****       133.7500 122.2500 144.7500 Du        
  29564 ****       133.7500 122.2500 145.0000 Du        
  29565 ****       133.7500 122.2500 145.2500 Du        
  29566 ****       133.7500 122.2500 145.5000 Du        
  29567 ****       133.7500 122.2500 145.7500 Du        
  29568 ****       133.7500 122.2500 146.0000 Du        
  29569 ****       133.7500 122.2500 146.2500 Du        
  29570 ****       133.7500 122.2500 146.5000 Du        
  29571 ****       133.7500 122.5000 144.2500 Du        
  29572 ****       133.7500 122.5000 144.5000 Du        
  29573 ****       133.7500 122.5000 144.7500 Du        
  29574 ****       133.7500 122.5000 145.0000 Du        
  29575 ****       133.7500 122.5000 145.2500 Du        
  29576 ****       133.7500 122.5000 145.5000 Du        
  29577 ****       133.7500 122.7500 144.5000 Du        
  29578 ****       133.7500 122.7500 144.7500 Du        
  29579 ****       133.7500 122.7500 145.0000 Du        
  29580 ****       133.7500 128.0000 165.0000 Du        
  29581 ****       133.7500 128.2500 164.7500 Du        
  29582 ****       133.7500 128.2500 165.0000 Du        
  29583 ****       133.7500 128.5000 164.7500 Du        
  29584 ****       133.7500 128.5000 165.0000 Du        
  29585 ****       133.7500 128.7500 164.7500 Du        
  29586 ****       133.7500 136.5000  89.2500 Du        
  29587 ****       133.7500 136.5000  89.5000 Du        
  29588 ****       133.7500 136.5000  89.7500 Du        
  29589 ****       133.7500 136.7500  89.0000 Du        
  29590 ****       133.7500 136.7500  89.2500 Du        
  29591 ****       133.7500 136.7500  89.5000 Du        
  29592 ****       133.7500 136.7500  89.7500 Du        
  29593 ****       133.7500 136.7500  90.0000 Du        
  29594 ****       133.7500 137.0000  88.7500 Du        
  29595 ****       133.7500 137.0000  89.0000 Du        
  29596 ****       133.7500 137.0000  89.2500 Du        
  29597 ****       133.7500 137.0000  89.5000 Du        
  29598 ****       133.7500 137.0000  89.7500 Du        
  29599 ****       133.7500 137.0000  90.0000 Du        
  29600 ****       133.7500 137.2500  88.5000 Du        
  29601 ****       133.7500 137.2500  88.7500 Du        
  29602 ****       133.7500 137.2500  89.0000 Du        
  29603 ****       133.7500 137.2500  89.2500 Du        
  29604 ****       133.7500 137.2500  89.5000 Du        
  29605 ****       133.7500 137.2500  89.7500 Du        
  29606 ****       133.7500 137.2500  90.0000 Du        
  29607 ****       133.7500 137.2500  90.2500 Du        
  29608 ****       133.7500 137.2500  96.7500 Du        
  29609 ****       133.7500 137.5000  88.5000 Du        
  29610 ****       133.7500 137.5000  88.7500 Du        
  29611 ****       133.7500 137.5000  89.0000 Du        
  29612 ****       133.7500 137.5000  89.2500 Du        
  29613 ****       133.7500 137.5000  89.5000 Du        
  29614 ****       133.7500 137.5000  89.7500 Du        
  29615 ****       133.7500 137.5000  90.0000 Du        
  29616 ****       133.7500 137.5000  90.2500 Du        
  29617 ****       133.7500 137.5000  90.5000 Du        
  29618 ****       133.7500 137.5000  96.7500 Du        
  29619 ****       133.7500 137.5000 104.0000 Du        
  29620 ****       133.7500 137.5000 104.2500 Du        
  29621 ****       133.7500 137.5000 104.5000 Du        
  29622 ****       133.7500 137.7500  88.7500 Du        
  29623 ****       133.7500 137.7500  89.0000 Du        
  29624 ****       133.7500 137.7500  89.2500 Du        
  29625 ****       133.7500 137.7500  89.5000 Du        
  29626 ****       133.7500 137.7500  89.7500 Du        
  29627 ****       133.7500 137.7500  90.0000 Du        
  29628 ****       133.7500 137.7500  90.2500 Du        
  29629 ****       133.7500 137.7500  90.5000 Du        
  29630 ****       133.7500 137.7500  96.5000 Du        
  29631 ****       133.7500 137.7500  96.7500 Du        
  29632 ****       133.7500 137.7500  97.0000 Du        
  29633 ****       133.7500 137.7500 103.7500 Du        
  29634 ****       133.7500 137.7500 104.0000 Du        
  29635 ****       133.7500 137.7500 104.2500 Du        
  29636 ****       133.7500 137.7500 104.5000 Du        
  29637 ****       133.7500 137.7500 104.7500 Du        
  29638 ****       133.7500 138.0000  89.2500 Du        
  29639 ****       133.7500 138.0000  89.5000 Du        
  29640 ****       133.7500 138.0000  89.7500 Du        
  29641 ****       133.7500 138.0000  90.0000 Du        
  29642 ****       133.7500 138.0000  90.2500 Du        
  29643 ****       133.7500 138.0000  90.5000 Du        
  29644 ****       133.7500 138.0000  90.7500 Du        
  29645 ****       133.7500 138.0000  96.2500 Du        
  29646 ****       133.7500 138.0000  96.5000 Du        
  29647 ****       133.7500 138.0000  96.7500 Du        
  29648 ****       133.7500 138.0000  97.0000 Du        
  29649 ****       133.7500 138.0000 103.5000 Du        
  29650 ****       133.7500 138.0000 103.7500 Du        
  29651 ****       133.7500 138.0000 104.0000 Du        
  29652 ****       133.7500 138.0000 104.2500 Du        
  29653 ****       133.7500 138.0000 104.5000 Du        
  29654 ****       133.7500 138.0000 104.7500 Du        
  29655 ****       133.7500 138.0000 105.0000 Du        
  29656 ****       133.7500 138.0000 105.2500 Du        
  29657 ****       133.7500 138.0000 105.5000 Du        
  29658 ****       133.7500 138.0000 107.0000 Du        
  29659 ****       133.7500 138.0000 107.2500 Du        
  29660 ****       133.7500 138.2500  90.5000 Du        
  29661 ****       133.7500 138.2500  96.0000 Du        
  29662 ****       133.7500 138.2500  96.2500 Du        
  29663 ****       133.7500 138.2500  96.5000 Du        
  29664 ****       133.7500 138.2500  96.7500 Du        
  29665 ****       133.7500 138.2500  97.0000 Du        
  29666 ****       133.7500 138.2500 103.2500 Du        
  29667 ****       133.7500 138.2500 103.5000 Du        
  29668 ****       133.7500 138.2500 103.7500 Du        
  29669 ****       133.7500 138.2500 104.0000 Du        
  29670 ****       133.7500 138.2500 104.2500 Du        
  29671 ****       133.7500 138.2500 104.5000 Du        
  29672 ****       133.7500 138.2500 104.7500 Du        
  29673 ****       133.7500 138.2500 105.0000 Du        
  29674 ****       133.7500 138.2500 105.2500 Du        
  29675 ****       133.7500 138.2500 105.5000 Du        
  29676 ****       133.7500 138.2500 105.7500 Du        
  29677 ****       133.7500 138.2500 106.0000 Du        
  29678 ****       133.7500 138.2500 106.2500 Du        
  29679 ****       133.7500 138.2500 106.5000 Du        
  29680 ****       133.7500 138.2500 106.7500 Du        
  29681 ****       133.7500 138.5000  96.2500 Du        
  29682 ****       133.7500 138.5000  96.5000 Du        
  29683 ****       133.7500 138.5000  96.7500 Du        
  29684 ****       133.7500 138.5000  97.0000 Du        
  29685 ****       133.7500 138.5000 103.2500 Du        
  29686 ****       133.7500 138.5000 103.5000 Du        
  29687 ****       133.7500 138.5000 103.7500 Du        
  29688 ****       133.7500 138.5000 104.0000 Du        
  29689 ****       133.7500 138.5000 104.2500 Du        
  29690 ****       133.7500 138.5000 104.5000 Du        
  29691 ****       133.7500 138.5000 104.7500 Du        
  29692 ****       133.7500 138.5000 105.0000 Du        
  29693 ****       133.7500 138.5000 105.2500 Du        
  29694 ****       133.7500 138.5000 105.5000 Du        
  29695 ****       133.7500 138.5000 105.7500 Du        
  29696 ****       133.7500 138.5000 106.0000 Du        
  29697 ****       133.7500 138.5000 106.2500 Du        
  29698 ****       133.7500 138.7500  96.0000 Du        
  29699 ****       133.7500 138.7500  96.2500 Du        
  29700 ****       133.7500 138.7500  96.5000 Du        
  29701 ****       133.7500 138.7500  96.7500 Du        
  29702 ****       133.7500 138.7500  97.0000 Du        
  29703 ****       133.7500 138.7500  97.2500 Du        
  29704 ****       133.7500 138.7500 103.0000 Du        
  29705 ****       133.7500 138.7500 103.2500 Du        
  29706 ****       133.7500 138.7500 103.5000 Du        
  29707 ****       133.7500 138.7500 103.7500 Du        
  29708 ****       133.7500 138.7500 104.0000 Du        
  29709 ****       133.7500 138.7500 104.2500 Du        
  29710 ****       133.7500 138.7500 104.5000 Du        
  29711 ****       133.7500 138.7500 104.7500 Du        
  29712 ****       133.7500 138.7500 105.0000 Du        
  29713 ****       133.7500 138.7500 105.2500 Du        
  29714 ****       133.7500 138.7500 105.5000 Du        
  29715 ****       133.7500 138.7500 105.7500 Du        
  29716 ****       133.7500 138.7500 106.0000 Du        
  29717 ****       133.7500 139.0000  96.2500 Du        
  29718 ****       133.7500 139.0000  96.5000 Du        
  29719 ****       133.7500 139.0000  96.7500 Du        
  29720 ****       133.7500 139.0000  97.0000 Du        
  29721 ****       133.7500 139.0000  97.2500 Du        
  29722 ****       133.7500 139.0000 103.0000 Du        
  29723 ****       133.7500 139.0000 103.2500 Du        
  29724 ****       133.7500 139.0000 103.5000 Du        
  29725 ****       133.7500 139.0000 103.7500 Du        
  29726 ****       133.7500 139.0000 104.0000 Du        
  29727 ****       133.7500 139.0000 104.2500 Du        
  29728 ****       133.7500 139.0000 104.5000 Du        
  29729 ****       133.7500 139.0000 104.7500 Du        
  29730 ****       133.7500 139.0000 105.0000 Du        
  29731 ****       133.7500 139.0000 105.2500 Du        
  29732 ****       133.7500 139.0000 105.5000 Du        
  29733 ****       133.7500 139.0000 105.7500 Du        
  29734 ****       133.7500 139.2500  96.7500 Du        
  29735 ****       133.7500 139.2500  97.0000 Du        
  29736 ****       133.7500 139.2500  97.2500 Du        
  29737 ****       133.7500 139.2500 103.0000 Du        
  29738 ****       133.7500 139.2500 103.2500 Du        
  29739 ****       133.7500 139.2500 103.5000 Du        
  29740 ****       133.7500 139.2500 103.7500 Du        
  29741 ****       133.7500 139.2500 104.0000 Du        
  29742 ****       133.7500 139.2500 104.2500 Du        
  29743 ****       133.7500 139.2500 104.5000 Du        
  29744 ****       133.7500 139.2500 104.7500 Du        
  29745 ****       133.7500 139.2500 105.0000 Du        
  29746 ****       133.7500 139.2500 105.2500 Du        
  29747 ****       133.7500 139.2500 105.5000 Du        
  29748 ****       133.7500 139.5000 104.0000 Du        
  29749 ****       133.7500 139.5000 104.2500 Du        
  29750 ****       133.7500 139.5000 104.5000 Du        
  29751 ****       133.7500 139.5000 104.7500 Du        
  29752 ****       133.7500 142.7500 127.2500 Du        
  29753 ****       133.7500 142.7500 127.5000 Du        
  29754 ****       133.7500 142.7500 127.7500 Du        
  29755 ****       133.7500 142.7500 129.5000 Du        
  29756 ****       133.7500 142.7500 129.7500 Du        
  29757 ****       133.7500 142.7500 130.0000 Du        
  29758 ****       133.7500 142.7500 130.2500 Du        
  29759 ****       133.7500 142.7500 130.5000 Du        
  29760 ****       133.7500 143.0000 126.7500 Du        
  29761 ****       133.7500 143.0000 127.0000 Du        
  29762 ****       133.7500 143.0000 127.2500 Du        
  29763 ****       133.7500 143.0000 127.5000 Du        
  29764 ****       133.7500 143.0000 127.7500 Du        
  29765 ****       133.7500 143.0000 128.0000 Du        
  29766 ****       133.7500 143.0000 128.2500 Du        
  29767 ****       133.7500 143.0000 128.5000 Du        
  29768 ****       133.7500 143.0000 128.7500 Du        
  29769 ****       133.7500 143.0000 129.0000 Du        
  29770 ****       133.7500 143.0000 129.2500 Du        
  29771 ****       133.7500 143.0000 129.5000 Du        
  29772 ****       133.7500 143.0000 129.7500 Du        
  29773 ****       133.7500 143.0000 130.0000 Du        
  29774 ****       133.7500 143.0000 130.2500 Du        
  29775 ****       133.7500 143.0000 130.5000 Du        
  29776 ****       133.7500 143.0000 130.7500 Du        
  29777 ****       133.7500 143.2500 126.2500 Du        
  29778 ****       133.7500 143.2500 126.5000 Du        
  29779 ****       133.7500 143.2500 126.7500 Du        
  29780 ****       133.7500 143.2500 127.0000 Du        
  29781 ****       133.7500 143.2500 127.2500 Du        
  29782 ****       133.7500 143.2500 127.5000 Du        
  29783 ****       133.7500 143.2500 127.7500 Du        
  29784 ****       133.7500 143.2500 128.0000 Du        
  29785 ****       133.7500 143.2500 128.2500 Du        
  29786 ****       133.7500 143.2500 128.5000 Du        
  29787 ****       133.7500 143.2500 128.7500 Du        
  29788 ****       133.7500 143.2500 129.0000 Du        
  29789 ****       133.7500 143.2500 129.2500 Du        
  29790 ****       133.7500 143.2500 129.5000 Du        
  29791 ****       133.7500 143.2500 129.7500 Du        
  29792 ****       133.7500 143.2500 130.0000 Du        
  29793 ****       133.7500 143.2500 130.2500 Du        
  29794 ****       133.7500 143.2500 130.5000 Du        
  29795 ****       133.7500 143.2500 130.7500 Du        
  29796 ****       133.7500 143.2500 131.0000 Du        
  29797 ****       133.7500 143.5000 126.2500 Du        
  29798 ****       133.7500 143.5000 126.5000 Du        
  29799 ****       133.7500 143.5000 126.7500 Du        
  29800 ****       133.7500 143.5000 127.0000 Du        
  29801 ****       133.7500 143.5000 127.2500 Du        
  29802 ****       133.7500 143.5000 127.5000 Du        
  29803 ****       133.7500 143.5000 127.7500 Du        
  29804 ****       133.7500 143.5000 128.0000 Du        
  29805 ****       133.7500 143.5000 128.2500 Du        
  29806 ****       133.7500 143.5000 128.5000 Du        
  29807 ****       133.7500 143.5000 128.7500 Du        
  29808 ****       133.7500 143.5000 129.0000 Du        
  29809 ****       133.7500 143.5000 129.2500 Du        
  29810 ****       133.7500 143.5000 129.5000 Du        
  29811 ****       133.7500 143.5000 129.7500 Du        
  29812 ****       133.7500 143.5000 130.0000 Du        
  29813 ****       133.7500 143.5000 130.2500 Du        
  29814 ****       133.7500 143.5000 130.5000 Du        
  29815 ****       133.7500 143.5000 130.7500 Du        
  29816 ****       133.7500 143.5000 131.0000 Du        
  29817 ****       133.7500 143.5000 131.2500 Du        
  29818 ****       133.7500 143.7500 126.2500 Du        
  29819 ****       133.7500 143.7500 126.5000 Du        
  29820 ****       133.7500 143.7500 126.7500 Du        
  29821 ****       133.7500 143.7500 127.0000 Du        
  29822 ****       133.7500 143.7500 127.2500 Du        
  29823 ****       133.7500 143.7500 127.5000 Du        
  29824 ****       133.7500 143.7500 127.7500 Du        
  29825 ****       133.7500 143.7500 128.0000 Du        
  29826 ****       133.7500 143.7500 128.2500 Du        
  29827 ****       133.7500 143.7500 128.5000 Du        
  29828 ****       133.7500 143.7500 128.7500 Du        
  29829 ****       133.7500 143.7500 129.0000 Du        
  29830 ****       133.7500 143.7500 129.2500 Du        
  29831 ****       133.7500 143.7500 129.5000 Du        
  29832 ****       133.7500 143.7500 129.7500 Du        
  29833 ****       133.7500 143.7500 130.0000 Du        
  29834 ****       133.7500 143.7500 130.2500 Du        
  29835 ****       133.7500 143.7500 130.5000 Du        
  29836 ****       133.7500 143.7500 130.7500 Du        
  29837 ****       133.7500 143.7500 131.0000 Du        
  29838 ****       133.7500 143.7500 131.2500 Du        
  29839 ****       133.7500 143.7500 131.5000 Du        
  29840 ****       133.7500 144.0000 126.2500 Du        
  29841 ****       133.7500 144.0000 126.5000 Du        
  29842 ****       133.7500 144.0000 126.7500 Du        
  29843 ****       133.7500 144.0000 127.0000 Du        
  29844 ****       133.7500 144.0000 127.2500 Du        
  29845 ****       133.7500 144.0000 127.5000 Du        
  29846 ****       133.7500 144.0000 127.7500 Du        
  29847 ****       133.7500 144.0000 128.0000 Du        
  29848 ****       133.7500 144.0000 128.2500 Du        
  29849 ****       133.7500 144.0000 128.5000 Du        
  29850 ****       133.7500 144.0000 128.7500 Du        
  29851 ****       133.7500 144.0000 129.0000 Du        
  29852 ****       133.7500 144.0000 129.2500 Du        
  29853 ****       133.7500 144.0000 129.5000 Du        
  29854 ****       133.7500 144.0000 129.7500 Du        
  29855 ****       133.7500 144.0000 130.0000 Du        
  29856 ****       133.7500 144.0000 130.2500 Du        
  29857 ****       133.7500 144.0000 130.5000 Du        
  29858 ****       133.7500 144.0000 130.7500 Du        
  29859 ****       133.7500 144.0000 131.0000 Du        
  29860 ****       133.7500 144.0000 131.2500 Du        
  29861 ****       133.7500 144.0000 131.5000 Du        
  29862 ****       133.7500 144.0000 131.7500 Du        
  29863 ****       133.7500 144.2500 126.2500 Du        
  29864 ****       133.7500 144.2500 126.5000 Du        
  29865 ****       133.7500 144.2500 126.7500 Du        
  29866 ****       133.7500 144.2500 127.0000 Du        
  29867 ****       133.7500 144.2500 127.2500 Du        
  29868 ****       133.7500 144.2500 127.5000 Du        
  29869 ****       133.7500 144.2500 128.0000 Du        
  29870 ****       133.7500 144.2500 129.2500 Du        
  29871 ****       133.7500 144.2500 129.5000 Du        
  29872 ****       133.7500 144.2500 129.7500 Du        
  29873 ****       133.7500 144.2500 130.0000 Du        
  29874 ****       133.7500 144.2500 130.2500 Du        
  29875 ****       133.7500 144.2500 130.5000 Du        
  29876 ****       133.7500 144.2500 130.7500 Du        
  29877 ****       133.7500 144.2500 131.0000 Du        
  29878 ****       133.7500 144.2500 131.2500 Du        
  29879 ****       133.7500 144.2500 131.5000 Du        
  29880 ****       133.7500 144.5000 126.2500 Du        
  29881 ****       133.7500 144.7500 126.2500 Du        
  29882 ****       133.7500 151.2500 114.2500 Du        
  29883 ****       133.7500 151.2500 114.5000 Du        
  29884 ****       133.7500 151.2500 114.7500 Du        
  29885 ****       133.7500 151.2500 115.0000 Du        
  29886 ****       133.7500 151.5000 114.2500 Du        
  29887 ****       133.7500 151.5000 114.5000 Du        
  29888 ****       133.7500 151.5000 114.7500 Du        
  29889 ****       133.7500 151.5000 115.0000 Du        
  29890 ****       133.7500 151.7500 114.0000 Du        
  29891 ****       133.7500 151.7500 114.2500 Du        
  29892 ****       133.7500 151.7500 114.7500 Du        
  29893 ****       133.7500 152.0000 114.0000 Du        
  29894 ****       133.7500 153.7500 108.0000 Du        
  29895 ****       133.7500 153.7500 108.2500 Du        
  29896 ****       133.7500 153.7500 108.5000 Du        
  29897 ****       133.7500 153.7500 108.7500 Du        
  29898 ****       133.7500 153.7500 109.0000 Du        
  29899 ****       133.7500 153.7500 109.2500 Du        
  29900 ****       133.7500 153.7500 109.5000 Du        
  29901 ****       133.7500 154.0000 107.7500 Du        
  29902 ****       133.7500 154.0000 108.0000 Du        
  29903 ****       133.7500 154.0000 108.2500 Du        
  29904 ****       133.7500 154.0000 108.5000 Du        
  29905 ****       133.7500 154.0000 108.7500 Du        
  29906 ****       133.7500 154.0000 109.0000 Du        
  29907 ****       133.7500 154.0000 109.2500 Du        
  29908 ****       133.7500 154.0000 109.5000 Du        
  29909 ****       133.7500 154.0000 109.7500 Du        
  29910 ****       133.7500 154.0000 110.0000 Du        
  29911 ****       133.7500 154.2500 107.7500 Du        
  29912 ****       133.7500 154.2500 108.0000 Du        
  29913 ****       133.7500 154.2500 108.2500 Du        
  29914 ****       133.7500 154.2500 108.5000 Du        
  29915 ****       133.7500 154.2500 108.7500 Du        
  29916 ****       133.7500 154.2500 109.0000 Du        
  29917 ****       133.7500 154.2500 109.2500 Du        
  29918 ****       133.7500 154.2500 109.5000 Du        
  29919 ****       133.7500 154.2500 109.7500 Du        
  29920 ****       133.7500 154.5000 107.7500 Du        
  29921 ****       133.7500 154.5000 108.0000 Du        
  29922 ****       133.7500 154.5000 108.2500 Du        
  29923 ****       133.7500 154.5000 108.5000 Du        
  29924 ****       133.7500 154.5000 108.7500 Du        
  29925 ****       133.7500 154.5000 109.0000 Du        
  29926 ****       133.7500 154.5000 109.2500 Du        
  29927 ****       133.7500 154.5000 109.5000 Du        
  29928 ****       133.7500 154.7500 107.5000 Du        
  29929 ****       133.7500 154.7500 107.7500 Du        
  29930 ****       133.7500 154.7500 108.0000 Du        
  29931 ****       133.7500 154.7500 108.2500 Du        
  29932 ****       133.7500 154.7500 108.5000 Du        
  29933 ****       133.7500 154.7500 108.7500 Du        
  29934 ****       133.7500 154.7500 109.0000 Du        
  29935 ****       133.7500 154.7500 109.2500 Du        
  29936 ****       133.7500 154.7500 109.5000 Du        
  29937 ****       133.7500 155.0000 107.5000 Du        
  29938 ****       133.7500 155.0000 107.7500 Du        
  29939 ****       133.7500 155.0000 108.0000 Du        
  29940 ****       133.7500 155.0000 108.2500 Du        
  29941 ****       133.7500 155.0000 108.5000 Du        
  29942 ****       133.7500 155.0000 108.7500 Du        
  29943 ****       133.7500 155.0000 109.0000 Du        
  29944 ****       133.7500 155.0000 109.2500 Du        
  29945 ****       133.7500 155.2500 107.5000 Du        
  29946 ****       133.7500 155.2500 107.7500 Du        
  29947 ****       133.7500 155.2500 108.0000 Du        
  29948 ****       133.7500 155.2500 108.2500 Du        
  29949 ****       133.7500 155.2500 108.5000 Du        
  29950 ****       133.7500 155.2500 108.7500 Du        
  29951 ****       133.7500 155.2500 109.0000 Du        
  29952 ****       134.0000 121.0000 144.7500 Du        
  29953 ****       134.0000 121.0000 145.0000 Du        
  29954 ****       134.0000 121.0000 145.2500 Du        
  29955 ****       134.0000 121.0000 145.5000 Du        
  29956 ****       134.0000 121.0000 145.7500 Du        
  29957 ****       134.0000 121.0000 146.0000 Du        
  29958 ****       134.0000 121.0000 146.2500 Du        
  29959 ****       134.0000 121.0000 146.5000 Du        
  29960 ****       134.0000 121.0000 146.7500 Du        
  29961 ****       134.0000 121.2500 144.7500 Du        
  29962 ****       134.0000 121.2500 145.0000 Du        
  29963 ****       134.0000 121.2500 145.2500 Du        
  29964 ****       134.0000 121.2500 145.5000 Du        
  29965 ****       134.0000 121.2500 145.7500 Du        
  29966 ****       134.0000 121.2500 146.0000 Du        
  29967 ****       134.0000 121.2500 146.2500 Du        
  29968 ****       134.0000 121.2500 146.5000 Du        
  29969 ****       134.0000 121.2500 146.7500 Du        
  29970 ****       134.0000 121.5000 144.5000 Du        
  29971 ****       134.0000 121.5000 144.7500 Du        
  29972 ****       134.0000 121.5000 145.0000 Du        
  29973 ****       134.0000 121.5000 145.2500 Du        
  29974 ****       134.0000 121.5000 145.5000 Du        
  29975 ****       134.0000 121.5000 145.7500 Du        
  29976 ****       134.0000 121.5000 146.0000 Du        
  29977 ****       134.0000 121.5000 146.2500 Du        
  29978 ****       134.0000 121.5000 146.5000 Du        
  29979 ****       134.0000 121.5000 146.7500 Du        
  29980 ****       134.0000 121.7500 144.5000 Du        
  29981 ****       134.0000 121.7500 144.7500 Du        
  29982 ****       134.0000 121.7500 145.0000 Du        
  29983 ****       134.0000 121.7500 145.2500 Du        
  29984 ****       134.0000 121.7500 145.5000 Du        
  29985 ****       134.0000 121.7500 145.7500 Du        
  29986 ****       134.0000 121.7500 146.0000 Du        
  29987 ****       134.0000 121.7500 146.2500 Du        
  29988 ****       134.0000 121.7500 146.5000 Du        
  29989 ****       134.0000 121.7500 146.7500 Du        
  29990 ****       134.0000 121.7500 147.0000 Du        
  29991 ****       134.0000 122.0000 144.2500 Du        
  29992 ****       134.0000 122.0000 144.5000 Du        
  29993 ****       134.0000 122.0000 144.7500 Du        
  29994 ****       134.0000 122.0000 145.0000 Du        
  29995 ****       134.0000 122.0000 145.2500 Du        
  29996 ****       134.0000 122.0000 145.5000 Du        
  29997 ****       134.0000 122.0000 145.7500 Du        
  29998 ****       134.0000 122.0000 146.0000 Du        
  29999 ****       134.0000 122.0000 146.2500 Du        
  30000 ****       134.0000 122.0000 146.5000 Du        
  30001 ****       134.0000 122.0000 146.7500 Du        
  30002 ****       134.0000 122.0000 147.0000 Du        
  30003 ****       134.0000 122.2500 144.2500 Du        
  30004 ****       134.0000 122.2500 144.5000 Du        
  30005 ****       134.0000 122.2500 144.7500 Du        
  30006 ****       134.0000 122.2500 145.0000 Du        
  30007 ****       134.0000 122.2500 145.2500 Du        
  30008 ****       134.0000 122.2500 145.5000 Du        
  30009 ****       134.0000 122.2500 145.7500 Du        
  30010 ****       134.0000 122.2500 146.0000 Du        
  30011 ****       134.0000 122.2500 146.2500 Du        
  30012 ****       134.0000 122.2500 146.5000 Du        
  30013 ****       134.0000 122.2500 146.7500 Du        
  30014 ****       134.0000 122.5000 144.5000 Du        
  30015 ****       134.0000 122.5000 144.7500 Du        
  30016 ****       134.0000 122.5000 145.0000 Du        
  30017 ****       134.0000 126.7500  96.0000 Du        
  30018 ****       134.0000 128.5000 164.7500 Du        
  30019 ****       134.0000 136.5000  89.5000 Du        
  30020 ****       134.0000 136.7500  89.0000 Du        
  30021 ****       134.0000 136.7500  89.2500 Du        
  30022 ****       134.0000 136.7500  89.5000 Du        
  30023 ****       134.0000 136.7500  89.7500 Du        
  30024 ****       134.0000 137.0000  88.7500 Du        
  30025 ****       134.0000 137.0000  89.0000 Du        
  30026 ****       134.0000 137.0000  89.2500 Du        
  30027 ****       134.0000 137.0000  89.5000 Du        
  30028 ****       134.0000 137.0000  89.7500 Du        
  30029 ****       134.0000 137.0000  90.0000 Du        
  30030 ****       134.0000 137.2500  88.5000 Du        
  30031 ****       134.0000 137.2500  88.7500 Du        
  30032 ****       134.0000 137.2500  89.0000 Du        
  30033 ****       134.0000 137.2500  89.2500 Du        
  30034 ****       134.0000 137.2500  89.5000 Du        
  30035 ****       134.0000 137.2500  89.7500 Du        
  30036 ****       134.0000 137.2500  90.0000 Du        
  30037 ****       134.0000 137.2500  90.2500 Du        
  30038 ****       134.0000 137.2500  96.7500 Du        
  30039 ****       134.0000 137.2500 103.7500 Du        
  30040 ****       134.0000 137.2500 104.0000 Du        
  30041 ****       134.0000 137.2500 104.2500 Du        
  30042 ****       134.0000 137.5000  88.7500 Du        
  30043 ****       134.0000 137.5000  89.0000 Du        
  30044 ****       134.0000 137.5000  89.2500 Du        
  30045 ****       134.0000 137.5000  89.5000 Du        
  30046 ****       134.0000 137.5000  89.7500 Du        
  30047 ****       134.0000 137.5000  90.0000 Du        
  30048 ****       134.0000 137.5000  90.2500 Du        
  30049 ****       134.0000 137.5000  96.7500 Du        
  30050 ****       134.0000 137.5000 103.7500 Du        
  30051 ****       134.0000 137.5000 104.0000 Du        
  30052 ****       134.0000 137.5000 104.2500 Du        
  30053 ****       134.0000 137.5000 104.5000 Du        
  30054 ****       134.0000 137.5000 104.7500 Du        
  30055 ****       134.0000 137.7500  88.7500 Du        
  30056 ****       134.0000 137.7500  89.0000 Du        
  30057 ****       134.0000 137.7500  89.2500 Du        
  30058 ****       134.0000 137.7500  89.5000 Du        
  30059 ****       134.0000 137.7500  89.7500 Du        
  30060 ****       134.0000 137.7500  90.0000 Du        
  30061 ****       134.0000 137.7500  90.2500 Du        
  30062 ****       134.0000 137.7500  90.5000 Du        
  30063 ****       134.0000 137.7500  96.5000 Du        
  30064 ****       134.0000 137.7500  96.7500 Du        
  30065 ****       134.0000 137.7500  97.0000 Du        
  30066 ****       134.0000 137.7500 103.5000 Du        
  30067 ****       134.0000 137.7500 103.7500 Du        
  30068 ****       134.0000 137.7500 104.0000 Du        
  30069 ****       134.0000 137.7500 104.2500 Du        
  30070 ****       134.0000 137.7500 104.5000 Du        
  30071 ****       134.0000 137.7500 104.7500 Du        
  30072 ****       134.0000 137.7500 105.0000 Du        
  30073 ****       134.0000 137.7500 105.2500 Du        
  30074 ****       134.0000 138.0000  89.5000 Du        
  30075 ****       134.0000 138.0000  89.7500 Du        
  30076 ****       134.0000 138.0000  90.0000 Du        
  30077 ****       134.0000 138.0000  90.2500 Du        
  30078 ****       134.0000 138.0000  90.5000 Du        
  30079 ****       134.0000 138.0000  96.2500 Du        
  30080 ****       134.0000 138.0000  96.5000 Du        
  30081 ****       134.0000 138.0000  96.7500 Du        
  30082 ****       134.0000 138.0000  97.0000 Du        
  30083 ****       134.0000 138.0000 103.2500 Du        
  30084 ****       134.0000 138.0000 103.5000 Du        
  30085 ****       134.0000 138.0000 103.7500 Du        
  30086 ****       134.0000 138.0000 104.0000 Du        
  30087 ****       134.0000 138.0000 104.2500 Du        
  30088 ****       134.0000 138.0000 104.5000 Du        
  30089 ****       134.0000 138.0000 104.7500 Du        
  30090 ****       134.0000 138.0000 105.0000 Du        
  30091 ****       134.0000 138.0000 105.2500 Du        
  30092 ****       134.0000 138.0000 105.5000 Du        
  30093 ****       134.0000 138.0000 105.7500 Du        
  30094 ****       134.0000 138.0000 106.0000 Du        
  30095 ****       134.0000 138.0000 106.2500 Du        
  30096 ****       134.0000 138.0000 106.5000 Du        
  30097 ****       134.0000 138.2500  90.2500 Du        
  30098 ****       134.0000 138.2500  96.0000 Du        
  30099 ****       134.0000 138.2500  96.2500 Du        
  30100 ****       134.0000 138.2500  96.5000 Du        
  30101 ****       134.0000 138.2500  96.7500 Du        
  30102 ****       134.0000 138.2500  97.0000 Du        
  30103 ****       134.0000 138.2500  97.2500 Du        
  30104 ****       134.0000 138.2500 103.2500 Du        
  30105 ****       134.0000 138.2500 103.5000 Du        
  30106 ****       134.0000 138.2500 103.7500 Du        
  30107 ****       134.0000 138.2500 104.0000 Du        
  30108 ****       134.0000 138.2500 104.2500 Du        
  30109 ****       134.0000 138.2500 104.5000 Du        
  30110 ****       134.0000 138.2500 104.7500 Du        
  30111 ****       134.0000 138.2500 105.0000 Du        
  30112 ****       134.0000 138.2500 105.2500 Du        
  30113 ****       134.0000 138.2500 105.5000 Du        
  30114 ****       134.0000 138.2500 105.7500 Du        
  30115 ****       134.0000 138.2500 106.0000 Du        
  30116 ****       134.0000 138.2500 106.2500 Du        
  30117 ****       134.0000 138.2500 106.5000 Du        
  30118 ****       134.0000 138.5000  96.0000 Du        
  30119 ****       134.0000 138.5000  96.2500 Du        
  30120 ****       134.0000 138.5000  96.5000 Du        
  30121 ****       134.0000 138.5000  96.7500 Du        
  30122 ****       134.0000 138.5000  97.0000 Du        
  30123 ****       134.0000 138.5000  97.2500 Du        
  30124 ****       134.0000 138.5000 103.0000 Du        
  30125 ****       134.0000 138.5000 103.2500 Du        
  30126 ****       134.0000 138.5000 103.5000 Du        
  30127 ****       134.0000 138.5000 103.7500 Du        
  30128 ****       134.0000 138.5000 104.0000 Du        
  30129 ****       134.0000 138.5000 104.2500 Du        
  30130 ****       134.0000 138.5000 104.5000 Du        
  30131 ****       134.0000 138.5000 104.7500 Du        
  30132 ****       134.0000 138.5000 105.0000 Du        
  30133 ****       134.0000 138.5000 105.2500 Du        
  30134 ****       134.0000 138.5000 105.5000 Du        
  30135 ****       134.0000 138.5000 105.7500 Du        
  30136 ****       134.0000 138.5000 106.0000 Du        
  30137 ****       134.0000 138.7500  95.7500 Du        
  30138 ****       134.0000 138.7500  96.0000 Du        
  30139 ****       134.0000 138.7500  96.2500 Du        
  30140 ****       134.0000 138.7500  96.5000 Du        
  30141 ****       134.0000 138.7500  96.7500 Du        
  30142 ****       134.0000 138.7500  97.0000 Du        
  30143 ****       134.0000 138.7500  97.2500 Du        
  30144 ****       134.0000 138.7500 102.7500 Du        
  30145 ****       134.0000 138.7500 103.0000 Du        
  30146 ****       134.0000 138.7500 103.2500 Du        
  30147 ****       134.0000 138.7500 103.5000 Du        
  30148 ****       134.0000 138.7500 103.7500 Du        
  30149 ****       134.0000 138.7500 104.0000 Du        
  30150 ****       134.0000 138.7500 104.2500 Du        
  30151 ****       134.0000 138.7500 104.5000 Du        
  30152 ****       134.0000 138.7500 104.7500 Du        
  30153 ****       134.0000 138.7500 105.0000 Du        
  30154 ****       134.0000 138.7500 105.2500 Du        
  30155 ****       134.0000 138.7500 105.5000 Du        
  30156 ****       134.0000 138.7500 105.7500 Du        
  30157 ****       134.0000 139.0000  96.0000 Du        
  30158 ****       134.0000 139.0000  96.2500 Du        
  30159 ****       134.0000 139.0000  96.5000 Du        
  30160 ****       134.0000 139.0000  96.7500 Du        
  30161 ****       134.0000 139.0000  97.0000 Du        
  30162 ****       134.0000 139.0000  97.2500 Du        
  30163 ****       134.0000 139.0000  97.5000 Du        
  30164 ****       134.0000 139.0000 102.7500 Du        
  30165 ****       134.0000 139.0000 103.0000 Du        
  30166 ****       134.0000 139.0000 103.2500 Du        
  30167 ****       134.0000 139.0000 103.5000 Du        
  30168 ****       134.0000 139.0000 103.7500 Du        
  30169 ****       134.0000 139.0000 104.0000 Du        
  30170 ****       134.0000 139.0000 104.2500 Du        
  30171 ****       134.0000 139.0000 104.5000 Du        
  30172 ****       134.0000 139.0000 104.7500 Du        
  30173 ****       134.0000 139.0000 105.0000 Du        
  30174 ****       134.0000 139.0000 105.2500 Du        
  30175 ****       134.0000 139.0000 105.5000 Du        
  30176 ****       134.0000 139.2500  96.5000 Du        
  30177 ****       134.0000 139.2500  96.7500 Du        
  30178 ****       134.0000 139.2500  97.0000 Du        
  30179 ****       134.0000 139.2500  97.2500 Du        
  30180 ****       134.0000 139.2500  97.5000 Du        
  30181 ****       134.0000 139.2500 103.0000 Du        
  30182 ****       134.0000 139.2500 103.2500 Du        
  30183 ****       134.0000 139.2500 103.5000 Du        
  30184 ****       134.0000 139.2500 103.7500 Du        
  30185 ****       134.0000 139.2500 104.0000 Du        
  30186 ****       134.0000 139.2500 104.2500 Du        
  30187 ****       134.0000 139.2500 104.5000 Du        
  30188 ****       134.0000 139.2500 104.7500 Du        
  30189 ****       134.0000 139.2500 105.0000 Du        
  30190 ****       134.0000 139.2500 105.2500 Du        
  30191 ****       134.0000 139.5000 104.0000 Du        
  30192 ****       134.0000 139.5000 104.2500 Du        
  30193 ****       134.0000 139.5000 104.5000 Du        
  30194 ****       134.0000 142.5000 128.0000 Du        
  30195 ****       134.0000 142.5000 129.2500 Du        
  30196 ****       134.0000 142.5000 129.5000 Du        
  30197 ****       134.0000 142.5000 129.7500 Du        
  30198 ****       134.0000 142.5000 130.0000 Du        
  30199 ****       134.0000 142.7500 127.2500 Du        
  30200 ****       134.0000 142.7500 127.5000 Du        
  30201 ****       134.0000 142.7500 127.7500 Du        
  30202 ****       134.0000 142.7500 128.0000 Du        
  30203 ****       134.0000 142.7500 128.2500 Du        
  30204 ****       134.0000 142.7500 128.5000 Du        
  30205 ****       134.0000 142.7500 128.7500 Du        
  30206 ****       134.0000 142.7500 129.0000 Du        
  30207 ****       134.0000 142.7500 129.2500 Du        
  30208 ****       134.0000 142.7500 129.5000 Du        
  30209 ****       134.0000 142.7500 129.7500 Du        
  30210 ****       134.0000 142.7500 130.0000 Du        
  30211 ****       134.0000 142.7500 130.2500 Du        
  30212 ****       134.0000 142.7500 130.5000 Du        
  30213 ****       134.0000 143.0000 126.7500 Du        
  30214 ****       134.0000 143.0000 127.0000 Du        
  30215 ****       134.0000 143.0000 127.2500 Du        
  30216 ****       134.0000 143.0000 127.5000 Du        
  30217 ****       134.0000 143.0000 127.7500 Du        
  30218 ****       134.0000 143.0000 128.0000 Du        
  30219 ****       134.0000 143.0000 128.2500 Du        
  30220 ****       134.0000 143.0000 128.5000 Du        
  30221 ****       134.0000 143.0000 128.7500 Du        
  30222 ****       134.0000 143.0000 129.0000 Du        
  30223 ****       134.0000 143.0000 129.2500 Du        
  30224 ****       134.0000 143.0000 129.5000 Du        
  30225 ****       134.0000 143.0000 129.7500 Du        
  30226 ****       134.0000 143.0000 130.0000 Du        
  30227 ****       134.0000 143.0000 130.2500 Du        
  30228 ****       134.0000 143.0000 130.5000 Du        
  30229 ****       134.0000 143.0000 130.7500 Du        
  30230 ****       134.0000 143.2500 126.2500 Du        
  30231 ****       134.0000 143.2500 126.5000 Du        
  30232 ****       134.0000 143.2500 126.7500 Du        
  30233 ****       134.0000 143.2500 127.0000 Du        
  30234 ****       134.0000 143.2500 127.2500 Du        
  30235 ****       134.0000 143.2500 127.5000 Du        
  30236 ****       134.0000 143.2500 127.7500 Du        
  30237 ****       134.0000 143.2500 128.0000 Du        
  30238 ****       134.0000 143.2500 128.2500 Du        
  30239 ****       134.0000 143.2500 128.5000 Du        
  30240 ****       134.0000 143.2500 128.7500 Du        
  30241 ****       134.0000 143.2500 129.0000 Du        
  30242 ****       134.0000 143.2500 129.2500 Du        
  30243 ****       134.0000 143.2500 129.5000 Du        
  30244 ****       134.0000 143.2500 129.7500 Du        
  30245 ****       134.0000 143.2500 130.0000 Du        
  30246 ****       134.0000 143.2500 130.2500 Du        
  30247 ****       134.0000 143.2500 130.5000 Du        
  30248 ****       134.0000 143.2500 130.7500 Du        
  30249 ****       134.0000 143.2500 131.0000 Du        
  30250 ****       134.0000 143.5000 126.2500 Du        
  30251 ****       134.0000 143.5000 126.5000 Du        
  30252 ****       134.0000 143.5000 126.7500 Du        
  30253 ****       134.0000 143.5000 127.0000 Du        
  30254 ****       134.0000 143.5000 127.2500 Du        
  30255 ****       134.0000 143.5000 127.5000 Du        
  30256 ****       134.0000 143.5000 127.7500 Du        
  30257 ****       134.0000 143.5000 128.0000 Du        
  30258 ****       134.0000 143.5000 128.2500 Du        
  30259 ****       134.0000 143.5000 128.5000 Du        
  30260 ****       134.0000 143.5000 128.7500 Du        
  30261 ****       134.0000 143.5000 129.0000 Du        
  30262 ****       134.0000 143.5000 129.2500 Du        
  30263 ****       134.0000 143.5000 129.5000 Du        
  30264 ****       134.0000 143.5000 129.7500 Du        
  30265 ****       134.0000 143.5000 130.0000 Du        
  30266 ****       134.0000 143.5000 130.2500 Du        
  30267 ****       134.0000 143.5000 130.5000 Du        
  30268 ****       134.0000 143.5000 130.7500 Du        
  30269 ****       134.0000 143.5000 131.0000 Du        
  30270 ****       134.0000 143.7500 126.2500 Du        
  30271 ****       134.0000 143.7500 126.5000 Du        
  30272 ****       134.0000 143.7500 126.7500 Du        
  30273 ****       134.0000 143.7500 127.0000 Du        
  30274 ****       134.0000 143.7500 127.2500 Du        
  30275 ****       134.0000 143.7500 127.5000 Du        
  30276 ****       134.0000 143.7500 127.7500 Du        
  30277 ****       134.0000 143.7500 128.0000 Du        
  30278 ****       134.0000 143.7500 128.2500 Du        
  30279 ****       134.0000 143.7500 128.5000 Du        
  30280 ****       134.0000 143.7500 128.7500 Du        
  30281 ****       134.0000 143.7500 129.0000 Du        
  30282 ****       134.0000 143.7500 129.2500 Du        
  30283 ****       134.0000 143.7500 129.5000 Du        
  30284 ****       134.0000 143.7500 129.7500 Du        
  30285 ****       134.0000 143.7500 130.0000 Du        
  30286 ****       134.0000 143.7500 130.2500 Du        
  30287 ****       134.0000 143.7500 130.5000 Du        
  30288 ****       134.0000 143.7500 130.7500 Du        
  30289 ****       134.0000 143.7500 131.0000 Du        
  30290 ****       134.0000 143.7500 131.2500 Du        
  30291 ****       134.0000 144.0000 126.2500 Du        
  30292 ****       134.0000 144.0000 126.5000 Du        
  30293 ****       134.0000 144.0000 126.7500 Du        
  30294 ****       134.0000 144.0000 127.0000 Du        
  30295 ****       134.0000 144.0000 127.2500 Du        
  30296 ****       134.0000 144.0000 127.5000 Du        
  30297 ****       134.0000 144.0000 127.7500 Du        
  30298 ****       134.0000 144.0000 128.0000 Du        
  30299 ****       134.0000 144.0000 128.2500 Du        
  30300 ****       134.0000 144.0000 128.5000 Du        
  30301 ****       134.0000 144.0000 128.7500 Du        
  30302 ****       134.0000 144.0000 129.0000 Du        
  30303 ****       134.0000 144.0000 129.2500 Du        
  30304 ****       134.0000 144.0000 129.5000 Du        
  30305 ****       134.0000 144.0000 129.7500 Du        
  30306 ****       134.0000 144.0000 130.0000 Du        
  30307 ****       134.0000 144.0000 130.2500 Du        
  30308 ****       134.0000 144.0000 130.5000 Du        
  30309 ****       134.0000 144.0000 130.7500 Du        
  30310 ****       134.0000 144.0000 131.0000 Du        
  30311 ****       134.0000 144.0000 131.2500 Du        
  30312 ****       134.0000 144.0000 131.5000 Du        
  30313 ****       134.0000 144.2500 126.2500 Du        
  30314 ****       134.0000 144.2500 126.5000 Du        
  30315 ****       134.0000 144.2500 126.7500 Du        
  30316 ****       134.0000 144.2500 127.0000 Du        
  30317 ****       134.0000 144.2500 127.2500 Du        
  30318 ****       134.0000 144.2500 127.5000 Du        
  30319 ****       134.0000 144.2500 127.7500 Du        
  30320 ****       134.0000 144.2500 128.0000 Du        
  30321 ****       134.0000 144.2500 128.2500 Du        
  30322 ****       134.0000 144.2500 129.2500 Du        
  30323 ****       134.0000 144.2500 129.5000 Du        
  30324 ****       134.0000 144.2500 129.7500 Du        
  30325 ****       134.0000 144.2500 130.0000 Du        
  30326 ****       134.0000 144.2500 130.2500 Du        
  30327 ****       134.0000 144.2500 130.5000 Du        
  30328 ****       134.0000 144.2500 130.7500 Du        
  30329 ****       134.0000 144.2500 131.0000 Du        
  30330 ****       134.0000 144.2500 131.2500 Du        
  30331 ****       134.0000 144.2500 131.5000 Du        
  30332 ****       134.0000 144.5000 126.2500 Du        
  30333 ****       134.0000 148.0000 119.2500 Du        
  30334 ****       134.0000 148.2500 119.2500 Du        
  30335 ****       134.0000 151.2500 114.0000 Du        
  30336 ****       134.0000 151.2500 114.2500 Du        
  30337 ****       134.0000 151.2500 114.5000 Du        
  30338 ****       134.0000 151.2500 114.7500 Du        
  30339 ****       134.0000 151.2500 115.0000 Du        
  30340 ****       134.0000 151.5000 114.2500 Du        
  30341 ****       134.0000 151.5000 114.5000 Du        
  30342 ****       134.0000 151.5000 114.7500 Du        
  30343 ****       134.0000 151.5000 115.0000 Du        
  30344 ****       134.0000 151.7500 114.0000 Du        
  30345 ****       134.0000 151.7500 114.2500 Du        
  30346 ****       134.0000 151.7500 114.5000 Du        
  30347 ****       134.0000 151.7500 114.7500 Du        
  30348 ****       134.0000 152.0000 114.0000 Du        
  30349 ****       134.0000 152.0000 114.2500 Du        
  30350 ****       134.0000 153.2500 108.7500 Du        
  30351 ****       134.0000 153.2500 109.0000 Du        
  30352 ****       134.0000 153.2500 109.2500 Du        
  30353 ****       134.0000 153.2500 109.5000 Du        
  30354 ****       134.0000 153.5000 108.0000 Du        
  30355 ****       134.0000 153.5000 108.2500 Du        
  30356 ****       134.0000 153.5000 108.5000 Du        
  30357 ****       134.0000 153.5000 108.7500 Du        
  30358 ****       134.0000 153.5000 109.0000 Du        
  30359 ****       134.0000 153.5000 109.2500 Du        
  30360 ****       134.0000 153.5000 109.5000 Du        
  30361 ****       134.0000 153.5000 109.7500 Du        
  30362 ****       134.0000 153.5000 110.0000 Du        
  30363 ****       134.0000 153.7500 107.7500 Du        
  30364 ****       134.0000 153.7500 108.0000 Du        
  30365 ****       134.0000 153.7500 108.2500 Du        
  30366 ****       134.0000 153.7500 108.5000 Du        
  30367 ****       134.0000 153.7500 108.7500 Du        
  30368 ****       134.0000 153.7500 109.0000 Du        
  30369 ****       134.0000 153.7500 109.2500 Du        
  30370 ****       134.0000 153.7500 109.5000 Du        
  30371 ****       134.0000 153.7500 109.7500 Du        
  30372 ****       134.0000 153.7500 110.0000 Du        
  30373 ****       134.0000 153.7500 110.2500 Du        
  30374 ****       134.0000 154.0000 107.7500 Du        
  30375 ****       134.0000 154.0000 108.0000 Du        
  30376 ****       134.0000 154.0000 108.2500 Du        
  30377 ****       134.0000 154.0000 108.5000 Du        
  30378 ****       134.0000 154.0000 108.7500 Du        
  30379 ****       134.0000 154.0000 109.0000 Du        
  30380 ****       134.0000 154.0000 109.2500 Du        
  30381 ****       134.0000 154.0000 109.5000 Du        
  30382 ****       134.0000 154.0000 109.7500 Du        
  30383 ****       134.0000 154.0000 110.0000 Du        
  30384 ****       134.0000 154.0000 110.2500 Du        
  30385 ****       134.0000 154.2500 107.7500 Du        
  30386 ****       134.0000 154.2500 108.0000 Du        
  30387 ****       134.0000 154.2500 108.2500 Du        
  30388 ****       134.0000 154.2500 108.5000 Du        
  30389 ****       134.0000 154.2500 108.7500 Du        
  30390 ****       134.0000 154.2500 109.0000 Du        
  30391 ****       134.0000 154.2500 109.2500 Du        
  30392 ****       134.0000 154.2500 109.5000 Du        
  30393 ****       134.0000 154.2500 109.7500 Du        
  30394 ****       134.0000 154.2500 110.0000 Du        
  30395 ****       134.0000 154.5000 107.7500 Du        
  30396 ****       134.0000 154.5000 108.0000 Du        
  30397 ****       134.0000 154.5000 108.2500 Du        
  30398 ****       134.0000 154.5000 108.5000 Du        
  30399 ****       134.0000 154.5000 108.7500 Du        
  30400 ****       134.0000 154.5000 109.0000 Du        
  30401 ****       134.0000 154.5000 109.2500 Du        
  30402 ****       134.0000 154.5000 109.5000 Du        
  30403 ****       134.0000 154.7500 107.5000 Du        
  30404 ****       134.0000 154.7500 107.7500 Du        
  30405 ****       134.0000 154.7500 108.0000 Du        
  30406 ****       134.0000 154.7500 108.2500 Du        
  30407 ****       134.0000 154.7500 108.5000 Du        
  30408 ****       134.0000 154.7500 108.7500 Du        
  30409 ****       134.0000 154.7500 109.0000 Du        
  30410 ****       134.0000 154.7500 109.2500 Du        
  30411 ****       134.0000 154.7500 109.5000 Du        
  30412 ****       134.0000 155.0000 107.5000 Du        
  30413 ****       134.0000 155.0000 107.7500 Du        
  30414 ****       134.0000 155.0000 108.0000 Du        
  30415 ****       134.0000 155.0000 108.2500 Du        
  30416 ****       134.0000 155.0000 108.5000 Du        
  30417 ****       134.0000 155.0000 108.7500 Du        
  30418 ****       134.0000 155.0000 109.0000 Du        
  30419 ****       134.0000 155.0000 109.2500 Du        
  30420 ****       134.0000 155.2500 107.2500 Du        
  30421 ****       134.0000 155.2500 107.5000 Du        
  30422 ****       134.0000 155.2500 107.7500 Du        
  30423 ****       134.0000 155.2500 108.0000 Du        
  30424 ****       134.0000 155.2500 108.2500 Du        
  30425 ****       134.0000 155.2500 108.5000 Du        
  30426 ****       134.0000 155.2500 108.7500 Du        
  30427 ****       134.0000 155.2500 109.0000 Du        
  30428 ****       134.0000 155.5000 107.2500 Du        
  30429 ****       134.0000 155.5000 107.5000 Du        
  30430 ****       134.0000 155.5000 107.7500 Du        
  30431 ****       134.0000 155.5000 108.0000 Du        
  30432 ****       134.0000 155.7500 107.2500 Du        
  30433 ****       134.0000 160.5000 152.7500 Du        
  30434 ****       134.0000 160.5000 153.0000 Du        
  30435 ****       134.0000 160.7500 152.5000 Du        
  30436 ****       134.0000 160.7500 152.7500 Du        
  30437 ****       134.0000 160.7500 153.0000 Du        
  30438 ****       134.0000 160.7500 153.2500 Du        
  30439 ****       134.0000 161.0000 152.2500 Du        
  30440 ****       134.0000 161.0000 152.5000 Du        
  30441 ****       134.0000 161.0000 152.7500 Du        
  30442 ****       134.0000 161.0000 153.0000 Du        
  30443 ****       134.0000 161.2500 152.2500 Du        
  30444 ****       134.0000 161.2500 152.5000 Du        
  30445 ****       134.0000 161.2500 152.7500 Du        
  30446 ****       134.0000 161.5000 152.0000 Du        
  30447 ****       134.0000 161.5000 152.2500 Du        
  30448 ****       134.0000 161.7500 152.0000 Du        
  30449 ****       134.0000 162.0000 151.7500 Du        
  30450 ****       134.0000 162.0000 152.0000 Du        
  30451 ****       134.2500 121.0000 145.0000 Du        
  30452 ****       134.2500 121.0000 145.2500 Du        
  30453 ****       134.2500 121.0000 145.5000 Du        
  30454 ****       134.2500 121.0000 145.7500 Du        
  30455 ****       134.2500 121.0000 146.0000 Du        
  30456 ****       134.2500 121.0000 146.2500 Du        
  30457 ****       134.2500 121.0000 146.5000 Du        
  30458 ****       134.2500 121.0000 146.7500 Du        
  30459 ****       134.2500 121.0000 147.0000 Du        
  30460 ****       134.2500 121.2500 144.7500 Du        
  30461 ****       134.2500 121.2500 145.0000 Du        
  30462 ****       134.2500 121.2500 145.2500 Du        
  30463 ****       134.2500 121.2500 145.5000 Du        
  30464 ****       134.2500 121.2500 145.7500 Du        
  30465 ****       134.2500 121.2500 146.0000 Du        
  30466 ****       134.2500 121.2500 146.2500 Du        
  30467 ****       134.2500 121.2500 146.5000 Du        
  30468 ****       134.2500 121.2500 146.7500 Du        
  30469 ****       134.2500 121.2500 147.0000 Du        
  30470 ****       134.2500 121.5000 144.7500 Du        
  30471 ****       134.2500 121.5000 145.0000 Du        
  30472 ****       134.2500 121.5000 145.2500 Du        
  30473 ****       134.2500 121.5000 145.5000 Du        
  30474 ****       134.2500 121.5000 145.7500 Du        
  30475 ****       134.2500 121.5000 146.0000 Du        
  30476 ****       134.2500 121.5000 146.2500 Du        
  30477 ****       134.2500 121.5000 146.5000 Du        
  30478 ****       134.2500 121.5000 146.7500 Du        
  30479 ****       134.2500 121.5000 147.0000 Du        
  30480 ****       134.2500 121.5000 147.2500 Du        
  30481 ****       134.2500 121.7500 144.5000 Du        
  30482 ****       134.2500 121.7500 144.7500 Du        
  30483 ****       134.2500 121.7500 145.0000 Du        
  30484 ****       134.2500 121.7500 145.2500 Du        
  30485 ****       134.2500 121.7500 145.5000 Du        
  30486 ****       134.2500 121.7500 145.7500 Du        
  30487 ****       134.2500 121.7500 146.0000 Du        
  30488 ****       134.2500 121.7500 146.2500 Du        
  30489 ****       134.2500 121.7500 146.5000 Du        
  30490 ****       134.2500 121.7500 146.7500 Du        
  30491 ****       134.2500 121.7500 147.0000 Du        
  30492 ****       134.2500 121.7500 147.2500 Du        
  30493 ****       134.2500 122.0000 144.5000 Du        
  30494 ****       134.2500 122.0000 144.7500 Du        
  30495 ****       134.2500 122.0000 145.0000 Du        
  30496 ****       134.2500 122.0000 145.2500 Du        
  30497 ****       134.2500 122.0000 145.5000 Du        
  30498 ****       134.2500 122.0000 145.7500 Du        
  30499 ****       134.2500 122.0000 146.0000 Du        
  30500 ****       134.2500 122.0000 146.2500 Du        
  30501 ****       134.2500 122.0000 146.5000 Du        
  30502 ****       134.2500 122.0000 146.7500 Du        
  30503 ****       134.2500 122.0000 147.0000 Du        
  30504 ****       134.2500 122.0000 147.2500 Du        
  30505 ****       134.2500 122.2500 144.5000 Du        
  30506 ****       134.2500 122.2500 144.7500 Du        
  30507 ****       134.2500 122.2500 145.0000 Du        
  30508 ****       134.2500 122.2500 145.2500 Du        
  30509 ****       134.2500 122.2500 146.7500 Du        
  30510 ****       134.2500 122.2500 147.0000 Du        
  30511 ****       134.2500 122.2500 147.2500 Du        
  30512 ****       134.2500 126.5000  93.7500 Du        
  30513 ****       134.2500 126.5000  96.2500 Du        
  30514 ****       134.2500 126.7500  95.7500 Du        
  30515 ****       134.2500 126.7500  96.0000 Du        
  30516 ****       134.2500 126.7500  96.2500 Du        
  30517 ****       134.2500 136.7500  89.2500 Du        
  30518 ****       134.2500 136.7500  89.5000 Du        
  30519 ****       134.2500 136.7500  89.7500 Du        
  30520 ****       134.2500 136.7500 104.0000 Du        
  30521 ****       134.2500 137.0000  89.0000 Du        
  30522 ****       134.2500 137.0000  89.2500 Du        
  30523 ****       134.2500 137.0000  89.5000 Du        
  30524 ****       134.2500 137.0000  89.7500 Du        
  30525 ****       134.2500 137.0000  90.0000 Du        
  30526 ****       134.2500 137.0000 103.7500 Du        
  30527 ****       134.2500 137.0000 104.0000 Du        
  30528 ****       134.2500 137.0000 104.2500 Du        
  30529 ****       134.2500 137.0000 104.5000 Du        
  30530 ****       134.2500 137.2500  88.7500 Du        
  30531 ****       134.2500 137.2500  89.0000 Du        
  30532 ****       134.2500 137.2500  89.2500 Du        
  30533 ****       134.2500 137.2500  89.5000 Du        
  30534 ****       134.2500 137.2500  89.7500 Du        
  30535 ****       134.2500 137.2500  90.0000 Du        
  30536 ****       134.2500 137.2500  97.0000 Du        
  30537 ****       134.2500 137.2500 103.5000 Du        
  30538 ****       134.2500 137.2500 103.7500 Du        
  30539 ****       134.2500 137.2500 104.0000 Du        
  30540 ****       134.2500 137.2500 104.2500 Du        
  30541 ****       134.2500 137.2500 104.5000 Du        
  30542 ****       134.2500 137.2500 104.7500 Du        
  30543 ****       134.2500 137.5000  88.7500 Du        
  30544 ****       134.2500 137.5000  89.0000 Du        
  30545 ****       134.2500 137.5000  89.2500 Du        
  30546 ****       134.2500 137.5000  89.5000 Du        
  30547 ****       134.2500 137.5000  89.7500 Du        
  30548 ****       134.2500 137.5000  90.0000 Du        
  30549 ****       134.2500 137.5000  96.7500 Du        
  30550 ****       134.2500 137.5000  97.0000 Du        
  30551 ****       134.2500 137.5000 103.5000 Du        
  30552 ****       134.2500 137.5000 103.7500 Du        
  30553 ****       134.2500 137.5000 104.0000 Du        
  30554 ****       134.2500 137.5000 104.2500 Du        
  30555 ****       134.2500 137.5000 104.5000 Du        
  30556 ****       134.2500 137.5000 104.7500 Du        
  30557 ****       134.2500 137.5000 105.0000 Du        
  30558 ****       134.2500 137.7500  89.0000 Du        
  30559 ****       134.2500 137.7500  89.2500 Du        
  30560 ****       134.2500 137.7500  89.5000 Du        
  30561 ****       134.2500 137.7500  89.7500 Du        
  30562 ****       134.2500 137.7500  90.0000 Du        
  30563 ****       134.2500 137.7500  90.2500 Du        
  30564 ****       134.2500 137.7500  96.5000 Du        
  30565 ****       134.2500 137.7500  96.7500 Du        
  30566 ****       134.2500 137.7500  97.0000 Du        
  30567 ****       134.2500 137.7500 103.2500 Du        
  30568 ****       134.2500 137.7500 103.5000 Du        
  30569 ****       134.2500 137.7500 103.7500 Du        
  30570 ****       134.2500 137.7500 104.0000 Du        
  30571 ****       134.2500 137.7500 104.2500 Du        
  30572 ****       134.2500 137.7500 104.5000 Du        
  30573 ****       134.2500 137.7500 104.7500 Du        
  30574 ****       134.2500 137.7500 105.0000 Du        
  30575 ****       134.2500 137.7500 105.2500 Du        
  30576 ****       134.2500 137.7500 105.5000 Du        
  30577 ****       134.2500 137.7500 105.7500 Du        
  30578 ****       134.2500 137.7500 106.0000 Du        
  30579 ****       134.2500 138.0000  89.5000 Du        
  30580 ****       134.2500 138.0000  89.7500 Du        
  30581 ****       134.2500 138.0000  90.0000 Du        
  30582 ****       134.2500 138.0000  90.2500 Du        
  30583 ****       134.2500 138.0000  96.5000 Du        
  30584 ****       134.2500 138.0000  96.7500 Du        
  30585 ****       134.2500 138.0000  97.0000 Du        
  30586 ****       134.2500 138.0000 103.0000 Du        
  30587 ****       134.2500 138.0000 103.2500 Du        
  30588 ****       134.2500 138.0000 103.5000 Du        
  30589 ****       134.2500 138.0000 103.7500 Du        
  30590 ****       134.2500 138.0000 104.0000 Du        
  30591 ****       134.2500 138.0000 104.2500 Du        
  30592 ****       134.2500 138.0000 104.5000 Du        
  30593 ****       134.2500 138.0000 104.7500 Du        
  30594 ****       134.2500 138.0000 105.0000 Du        
  30595 ****       134.2500 138.0000 105.2500 Du        
  30596 ****       134.2500 138.0000 105.5000 Du        
  30597 ****       134.2500 138.0000 105.7500 Du        
  30598 ****       134.2500 138.0000 106.0000 Du        
  30599 ****       134.2500 138.0000 106.2500 Du        
  30600 ****       134.2500 138.0000 106.5000 Du        
  30601 ****       134.2500 138.2500  96.2500 Du        
  30602 ****       134.2500 138.2500  96.5000 Du        
  30603 ****       134.2500 138.2500  96.7500 Du        
  30604 ****       134.2500 138.2500  97.0000 Du        
  30605 ****       134.2500 138.2500  97.2500 Du        
  30606 ****       134.2500 138.2500 103.0000 Du        
  30607 ****       134.2500 138.2500 103.2500 Du        
  30608 ****       134.2500 138.2500 103.5000 Du        
  30609 ****       134.2500 138.2500 103.7500 Du        
  30610 ****       134.2500 138.2500 104.0000 Du        
  30611 ****       134.2500 138.2500 104.2500 Du        
  30612 ****       134.2500 138.2500 104.5000 Du        
  30613 ****       134.2500 138.2500 104.7500 Du        
  30614 ****       134.2500 138.2500 105.0000 Du        
  30615 ****       134.2500 138.2500 105.2500 Du        
  30616 ****       134.2500 138.2500 105.5000 Du        
  30617 ****       134.2500 138.2500 105.7500 Du        
  30618 ****       134.2500 138.2500 106.0000 Du        
  30619 ****       134.2500 138.2500 106.2500 Du        
  30620 ****       134.2500 138.5000  96.0000 Du        
  30621 ****       134.2500 138.5000  96.2500 Du        
  30622 ****       134.2500 138.5000  96.5000 Du        
  30623 ****       134.2500 138.5000  96.7500 Du        
  30624 ****       134.2500 138.5000  97.0000 Du        
  30625 ****       134.2500 138.5000  97.2500 Du        
  30626 ****       134.2500 138.5000 102.7500 Du        
  30627 ****       134.2500 138.5000 103.0000 Du        
  30628 ****       134.2500 138.5000 103.2500 Du        
  30629 ****       134.2500 138.5000 103.5000 Du        
  30630 ****       134.2500 138.5000 103.7500 Du        
  30631 ****       134.2500 138.5000 104.0000 Du        
  30632 ****       134.2500 138.5000 104.2500 Du        
  30633 ****       134.2500 138.5000 104.5000 Du        
  30634 ****       134.2500 138.5000 104.7500 Du        
  30635 ****       134.2500 138.5000 105.0000 Du        
  30636 ****       134.2500 138.5000 105.2500 Du        
  30637 ****       134.2500 138.5000 105.5000 Du        
  30638 ****       134.2500 138.5000 105.7500 Du        
  30639 ****       134.2500 138.5000 106.0000 Du        
  30640 ****       134.2500 138.7500  95.7500 Du        
  30641 ****       134.2500 138.7500  96.0000 Du        
  30642 ****       134.2500 138.7500  96.2500 Du        
  30643 ****       134.2500 138.7500  96.5000 Du        
  30644 ****       134.2500 138.7500  96.7500 Du        
  30645 ****       134.2500 138.7500  97.0000 Du        
  30646 ****       134.2500 138.7500  97.2500 Du        
  30647 ****       134.2500 138.7500 102.5000 Du        
  30648 ****       134.2500 138.7500 102.7500 Du        
  30649 ****       134.2500 138.7500 103.0000 Du        
  30650 ****       134.2500 138.7500 103.2500 Du        
  30651 ****       134.2500 138.7500 103.5000 Du        
  30652 ****       134.2500 138.7500 103.7500 Du        
  30653 ****       134.2500 138.7500 104.0000 Du        
  30654 ****       134.2500 138.7500 104.2500 Du        
  30655 ****       134.2500 138.7500 104.5000 Du        
  30656 ****       134.2500 138.7500 104.7500 Du        
  30657 ****       134.2500 138.7500 105.0000 Du        
  30658 ****       134.2500 138.7500 105.2500 Du        
  30659 ****       134.2500 138.7500 105.5000 Du        
  30660 ****       134.2500 138.7500 105.7500 Du        
  30661 ****       134.2500 139.0000  95.7500 Du        
  30662 ****       134.2500 139.0000  96.0000 Du        
  30663 ****       134.2500 139.0000  96.2500 Du        
  30664 ****       134.2500 139.0000  96.5000 Du        
  30665 ****       134.2500 139.0000  96.7500 Du        
  30666 ****       134.2500 139.0000  97.0000 Du        
  30667 ****       134.2500 139.0000  97.2500 Du        
  30668 ****       134.2500 139.0000  97.5000 Du        
  30669 ****       134.2500 139.0000 102.5000 Du        
  30670 ****       134.2500 139.0000 102.7500 Du        
  30671 ****       134.2500 139.0000 103.0000 Du        
  30672 ****       134.2500 139.0000 103.2500 Du        
  30673 ****       134.2500 139.0000 103.5000 Du        
  30674 ****       134.2500 139.0000 103.7500 Du        
  30675 ****       134.2500 139.0000 104.0000 Du        
  30676 ****       134.2500 139.0000 104.2500 Du        
  30677 ****       134.2500 139.0000 104.5000 Du        
  30678 ****       134.2500 139.0000 104.7500 Du        
  30679 ****       134.2500 139.0000 105.0000 Du        
  30680 ****       134.2500 139.0000 105.2500 Du        
  30681 ****       134.2500 139.0000 105.5000 Du        
  30682 ****       134.2500 139.2500  96.2500 Du        
  30683 ****       134.2500 139.2500  96.5000 Du        
  30684 ****       134.2500 139.2500  96.7500 Du        
  30685 ****       134.2500 139.2500  97.0000 Du        
  30686 ****       134.2500 139.2500  97.2500 Du        
  30687 ****       134.2500 139.2500 103.0000 Du        
  30688 ****       134.2500 139.2500 103.2500 Du        
  30689 ****       134.2500 139.2500 103.5000 Du        
  30690 ****       134.2500 139.2500 103.7500 Du        
  30691 ****       134.2500 139.2500 104.0000 Du        
  30692 ****       134.2500 139.2500 104.2500 Du        
  30693 ****       134.2500 139.2500 104.5000 Du        
  30694 ****       134.2500 139.2500 104.7500 Du        
  30695 ****       134.2500 139.2500 105.0000 Du        
  30696 ****       134.2500 139.2500 105.2500 Du        
  30697 ****       134.2500 139.5000 104.2500 Du        
  30698 ****       134.2500 142.0000 139.2500 Du        
  30699 ****       134.2500 142.2500 139.5000 Du        
  30700 ****       134.2500 142.5000 127.7500 Du        
  30701 ****       134.2500 142.5000 128.0000 Du        
  30702 ****       134.2500 142.5000 128.2500 Du        
  30703 ****       134.2500 142.5000 128.5000 Du        
  30704 ****       134.2500 142.5000 128.7500 Du        
  30705 ****       134.2500 142.5000 129.0000 Du        
  30706 ****       134.2500 142.5000 129.2500 Du        
  30707 ****       134.2500 142.5000 129.5000 Du        
  30708 ****       134.2500 142.5000 129.7500 Du        
  30709 ****       134.2500 142.5000 130.0000 Du        
  30710 ****       134.2500 142.7500 127.2500 Du        
  30711 ****       134.2500 142.7500 127.5000 Du        
  30712 ****       134.2500 142.7500 127.7500 Du        
  30713 ****       134.2500 142.7500 128.0000 Du        
  30714 ****       134.2500 142.7500 128.2500 Du        
  30715 ****       134.2500 142.7500 128.5000 Du        
  30716 ****       134.2500 142.7500 128.7500 Du        
  30717 ****       134.2500 142.7500 129.0000 Du        
  30718 ****       134.2500 142.7500 129.2500 Du        
  30719 ****       134.2500 142.7500 129.5000 Du        
  30720 ****       134.2500 142.7500 129.7500 Du        
  30721 ****       134.2500 142.7500 130.0000 Du        
  30722 ****       134.2500 142.7500 130.2500 Du        
  30723 ****       134.2500 143.0000 126.7500 Du        
  30724 ****       134.2500 143.0000 127.0000 Du        
  30725 ****       134.2500 143.0000 127.2500 Du        
  30726 ****       134.2500 143.0000 127.5000 Du        
  30727 ****       134.2500 143.0000 127.7500 Du        
  30728 ****       134.2500 143.0000 128.0000 Du        
  30729 ****       134.2500 143.0000 128.2500 Du        
  30730 ****       134.2500 143.0000 128.5000 Du        
  30731 ****       134.2500 143.0000 128.7500 Du        
  30732 ****       134.2500 143.0000 129.0000 Du        
  30733 ****       134.2500 143.0000 129.2500 Du        
  30734 ****       134.2500 143.0000 129.5000 Du        
  30735 ****       134.2500 143.0000 129.7500 Du        
  30736 ****       134.2500 143.0000 130.0000 Du        
  30737 ****       134.2500 143.0000 130.2500 Du        
  30738 ****       134.2500 143.0000 130.5000 Du        
  30739 ****       134.2500 143.2500 126.2500 Du        
  30740 ****       134.2500 143.2500 126.5000 Du        
  30741 ****       134.2500 143.2500 126.7500 Du        
  30742 ****       134.2500 143.2500 127.0000 Du        
  30743 ****       134.2500 143.2500 127.2500 Du        
  30744 ****       134.2500 143.2500 127.5000 Du        
  30745 ****       134.2500 143.2500 127.7500 Du        
  30746 ****       134.2500 143.2500 128.0000 Du        
  30747 ****       134.2500 143.2500 128.2500 Du        
  30748 ****       134.2500 143.2500 128.5000 Du        
  30749 ****       134.2500 143.2500 128.7500 Du        
  30750 ****       134.2500 143.2500 129.0000 Du        
  30751 ****       134.2500 143.2500 129.2500 Du        
  30752 ****       134.2500 143.2500 129.5000 Du        
  30753 ****       134.2500 143.2500 129.7500 Du        
  30754 ****       134.2500 143.2500 130.0000 Du        
  30755 ****       134.2500 143.2500 130.2500 Du        
  30756 ****       134.2500 143.2500 130.5000 Du        
  30757 ****       134.2500 143.2500 130.7500 Du        
  30758 ****       134.2500 143.5000 126.2500 Du        
  30759 ****       134.2500 143.5000 126.5000 Du        
  30760 ****       134.2500 143.5000 126.7500 Du        
  30761 ****       134.2500 143.5000 127.0000 Du        
  30762 ****       134.2500 143.5000 127.2500 Du        
  30763 ****       134.2500 143.5000 127.5000 Du        
  30764 ****       134.2500 143.5000 127.7500 Du        
  30765 ****       134.2500 143.5000 128.0000 Du        
  30766 ****       134.2500 143.5000 128.2500 Du        
  30767 ****       134.2500 143.5000 128.5000 Du        
  30768 ****       134.2500 143.5000 128.7500 Du        
  30769 ****       134.2500 143.5000 129.0000 Du        
  30770 ****       134.2500 143.5000 129.2500 Du        
  30771 ****       134.2500 143.5000 129.5000 Du        
  30772 ****       134.2500 143.5000 129.7500 Du        
  30773 ****       134.2500 143.5000 130.0000 Du        
  30774 ****       134.2500 143.5000 130.2500 Du        
  30775 ****       134.2500 143.5000 130.5000 Du        
  30776 ****       134.2500 143.5000 130.7500 Du        
  30777 ****       134.2500 143.5000 131.0000 Du        
  30778 ****       134.2500 143.7500 126.2500 Du        
  30779 ****       134.2500 143.7500 126.5000 Du        
  30780 ****       134.2500 143.7500 126.7500 Du        
  30781 ****       134.2500 143.7500 127.0000 Du        
  30782 ****       134.2500 143.7500 127.2500 Du        
  30783 ****       134.2500 143.7500 127.5000 Du        
  30784 ****       134.2500 143.7500 127.7500 Du        
  30785 ****       134.2500 143.7500 128.0000 Du        
  30786 ****       134.2500 143.7500 128.2500 Du        
  30787 ****       134.2500 143.7500 128.5000 Du        
  30788 ****       134.2500 143.7500 128.7500 Du        
  30789 ****       134.2500 143.7500 129.0000 Du        
  30790 ****       134.2500 143.7500 129.2500 Du        
  30791 ****       134.2500 143.7500 129.5000 Du        
  30792 ****       134.2500 143.7500 129.7500 Du        
  30793 ****       134.2500 143.7500 130.0000 Du        
  30794 ****       134.2500 143.7500 130.2500 Du        
  30795 ****       134.2500 143.7500 130.5000 Du        
  30796 ****       134.2500 143.7500 130.7500 Du        
  30797 ****       134.2500 143.7500 131.0000 Du        
  30798 ****       134.2500 143.7500 131.2500 Du        
  30799 ****       134.2500 144.0000 126.2500 Du        
  30800 ****       134.2500 144.0000 126.5000 Du        
  30801 ****       134.2500 144.0000 126.7500 Du        
  30802 ****       134.2500 144.0000 127.0000 Du        
  30803 ****       134.2500 144.0000 127.2500 Du        
  30804 ****       134.2500 144.0000 127.5000 Du        
  30805 ****       134.2500 144.0000 127.7500 Du        
  30806 ****       134.2500 144.0000 128.0000 Du        
  30807 ****       134.2500 144.0000 128.2500 Du        
  30808 ****       134.2500 144.0000 128.5000 Du        
  30809 ****       134.2500 144.0000 128.7500 Du        
  30810 ****       134.2500 144.0000 129.0000 Du        
  30811 ****       134.2500 144.0000 129.2500 Du        
  30812 ****       134.2500 144.0000 129.5000 Du        
  30813 ****       134.2500 144.0000 129.7500 Du        
  30814 ****       134.2500 144.0000 130.0000 Du        
  30815 ****       134.2500 144.0000 130.2500 Du        
  30816 ****       134.2500 144.0000 130.5000 Du        
  30817 ****       134.2500 144.0000 130.7500 Du        
  30818 ****       134.2500 144.0000 131.0000 Du        
  30819 ****       134.2500 144.0000 131.2500 Du        
  30820 ****       134.2500 144.2500 126.2500 Du        
  30821 ****       134.2500 144.2500 126.5000 Du        
  30822 ****       134.2500 144.2500 126.7500 Du        
  30823 ****       134.2500 144.2500 127.0000 Du        
  30824 ****       134.2500 144.2500 127.2500 Du        
  30825 ****       134.2500 144.2500 127.7500 Du        
  30826 ****       134.2500 144.2500 128.0000 Du        
  30827 ****       134.2500 144.2500 130.5000 Du        
  30828 ****       134.2500 144.2500 130.7500 Du        
  30829 ****       134.2500 144.2500 131.0000 Du        
  30830 ****       134.2500 144.2500 131.2500 Du        
  30831 ****       134.2500 144.5000 126.2500 Du        
  30832 ****       134.2500 146.2500 123.0000 Du        
  30833 ****       134.2500 147.7500 119.2500 Du        
  30834 ****       134.2500 147.7500 119.5000 Du        
  30835 ****       134.2500 148.0000 119.0000 Du        
  30836 ****       134.2500 148.0000 119.2500 Du        
  30837 ****       134.2500 148.0000 119.5000 Du        
  30838 ****       134.2500 148.0000 119.7500 Du        
  30839 ****       134.2500 148.0000 120.0000 Du        
  30840 ****       134.2500 148.2500 119.0000 Du        
  30841 ****       134.2500 148.2500 119.2500 Du        
  30842 ****       134.2500 148.2500 119.5000 Du        
  30843 ****       134.2500 148.2500 119.7500 Du        
  30844 ****       134.2500 148.2500 120.0000 Du        
  30845 ****       134.2500 148.5000 119.5000 Du        
  30846 ****       134.2500 151.2500 114.2500 Du        
  30847 ****       134.2500 151.2500 114.5000 Du        
  30848 ****       134.2500 151.2500 114.7500 Du        
  30849 ****       134.2500 151.2500 115.0000 Du        
  30850 ****       134.2500 151.2500 115.2500 Du        
  30851 ****       134.2500 151.5000 114.5000 Du        
  30852 ****       134.2500 151.5000 114.7500 Du        
  30853 ****       134.2500 151.5000 115.0000 Du        
  30854 ****       134.2500 151.7500 114.2500 Du        
  30855 ****       134.2500 153.2500 108.0000 Du        
  30856 ****       134.2500 153.2500 108.2500 Du        
  30857 ****       134.2500 153.2500 108.5000 Du        
  30858 ****       134.2500 153.2500 108.7500 Du        
  30859 ****       134.2500 153.2500 109.0000 Du        
  30860 ****       134.2500 153.2500 109.2500 Du        
  30861 ****       134.2500 153.2500 109.5000 Du        
  30862 ****       134.2500 153.2500 109.7500 Du        
  30863 ****       134.2500 153.5000 107.7500 Du        
  30864 ****       134.2500 153.5000 108.0000 Du        
  30865 ****       134.2500 153.5000 108.2500 Du        
  30866 ****       134.2500 153.5000 108.5000 Du        
  30867 ****       134.2500 153.5000 108.7500 Du        
  30868 ****       134.2500 153.5000 109.0000 Du        
  30869 ****       134.2500 153.5000 109.2500 Du        
  30870 ****       134.2500 153.5000 109.5000 Du        
  30871 ****       134.2500 153.5000 109.7500 Du        
  30872 ****       134.2500 153.5000 110.0000 Du        
  30873 ****       134.2500 153.7500 107.7500 Du        
  30874 ****       134.2500 153.7500 108.0000 Du        
  30875 ****       134.2500 153.7500 108.2500 Du        
  30876 ****       134.2500 153.7500 108.5000 Du        
  30877 ****       134.2500 153.7500 108.7500 Du        
  30878 ****       134.2500 153.7500 109.0000 Du        
  30879 ****       134.2500 153.7500 109.2500 Du        
  30880 ****       134.2500 153.7500 109.5000 Du        
  30881 ****       134.2500 153.7500 109.7500 Du        
  30882 ****       134.2500 153.7500 110.0000 Du        
  30883 ****       134.2500 153.7500 110.2500 Du        
  30884 ****       134.2500 154.0000 107.7500 Du        
  30885 ****       134.2500 154.0000 108.0000 Du        
  30886 ****       134.2500 154.0000 108.2500 Du        
  30887 ****       134.2500 154.0000 108.5000 Du        
  30888 ****       134.2500 154.0000 108.7500 Du        
  30889 ****       134.2500 154.0000 109.0000 Du        
  30890 ****       134.2500 154.0000 109.2500 Du        
  30891 ****       134.2500 154.0000 109.5000 Du        
  30892 ****       134.2500 154.0000 109.7500 Du        
  30893 ****       134.2500 154.0000 110.0000 Du        
  30894 ****       134.2500 154.0000 110.2500 Du        
  30895 ****       134.2500 154.2500 107.5000 Du        
  30896 ****       134.2500 154.2500 107.7500 Du        
  30897 ****       134.2500 154.2500 108.0000 Du        
  30898 ****       134.2500 154.2500 108.2500 Du        
  30899 ****       134.2500 154.2500 108.5000 Du        
  30900 ****       134.2500 154.2500 108.7500 Du        
  30901 ****       134.2500 154.2500 109.0000 Du        
  30902 ****       134.2500 154.2500 109.2500 Du        
  30903 ****       134.2500 154.2500 109.5000 Du        
  30904 ****       134.2500 154.2500 109.7500 Du        
  30905 ****       134.2500 154.2500 110.0000 Du        
  30906 ****       134.2500 154.5000 107.7500 Du        
  30907 ****       134.2500 154.5000 108.0000 Du        
  30908 ****       134.2500 154.5000 108.2500 Du        
  30909 ****       134.2500 154.5000 108.5000 Du        
  30910 ****       134.2500 154.5000 108.7500 Du        
  30911 ****       134.2500 154.5000 109.0000 Du        
  30912 ****       134.2500 154.5000 109.2500 Du        
  30913 ****       134.2500 154.5000 109.5000 Du        
  30914 ****       134.2500 154.7500 107.5000 Du        
  30915 ****       134.2500 154.7500 107.7500 Du        
  30916 ****       134.2500 154.7500 108.0000 Du        
  30917 ****       134.2500 154.7500 108.2500 Du        
  30918 ****       134.2500 154.7500 108.5000 Du        
  30919 ****       134.2500 154.7500 108.7500 Du        
  30920 ****       134.2500 154.7500 109.0000 Du        
  30921 ****       134.2500 154.7500 109.2500 Du        
  30922 ****       134.2500 155.0000 107.2500 Du        
  30923 ****       134.2500 155.0000 107.5000 Du        
  30924 ****       134.2500 155.0000 107.7500 Du        
  30925 ****       134.2500 155.0000 108.0000 Du        
  30926 ****       134.2500 155.0000 108.2500 Du        
  30927 ****       134.2500 155.0000 108.5000 Du        
  30928 ****       134.2500 155.0000 108.7500 Du        
  30929 ****       134.2500 155.0000 109.0000 Du        
  30930 ****       134.2500 155.2500 107.2500 Du        
  30931 ****       134.2500 155.2500 107.5000 Du        
  30932 ****       134.2500 155.2500 107.7500 Du        
  30933 ****       134.2500 155.2500 108.0000 Du        
  30934 ****       134.2500 155.2500 108.2500 Du        
  30935 ****       134.2500 155.2500 108.5000 Du        
  30936 ****       134.2500 155.5000 107.2500 Du        
  30937 ****       134.2500 155.5000 107.5000 Du        
  30938 ****       134.2500 155.5000 107.7500 Du        
  30939 ****       134.2500 155.7500 107.0000 Du        
  30940 ****       134.2500 155.7500 107.2500 Du        
  30941 ****       134.2500 156.0000 107.0000 Du        
  30942 ****       134.2500 156.0000 107.2500 Du        
  30943 ****       134.2500 160.2500 152.7500 Du        
  30944 ****       134.2500 160.5000 152.2500 Du        
  30945 ****       134.2500 160.5000 152.5000 Du        
  30946 ****       134.2500 160.5000 152.7500 Du        
  30947 ****       134.2500 160.5000 153.0000 Du        
  30948 ****       134.2500 160.5000 153.2500 Du        
  30949 ****       134.2500 160.7500 152.0000 Du        
  30950 ****       134.2500 160.7500 152.2500 Du        
  30951 ****       134.2500 160.7500 152.5000 Du        
  30952 ****       134.2500 160.7500 152.7500 Du        
  30953 ****       134.2500 160.7500 153.0000 Du        
  30954 ****       134.2500 160.7500 153.2500 Du        
  30955 ****       134.2500 160.7500 153.5000 Du        
  30956 ****       134.2500 161.0000 152.0000 Du        
  30957 ****       134.2500 161.0000 152.2500 Du        
  30958 ****       134.2500 161.0000 152.5000 Du        
  30959 ****       134.2500 161.0000 152.7500 Du        
  30960 ****       134.2500 161.0000 153.0000 Du        
  30961 ****       134.2500 161.0000 153.2500 Du        
  30962 ****       134.2500 161.0000 153.5000 Du        
  30963 ****       134.2500 161.2500 151.7500 Du        
  30964 ****       134.2500 161.2500 152.0000 Du        
  30965 ****       134.2500 161.2500 152.2500 Du        
  30966 ****       134.2500 161.2500 152.5000 Du        
  30967 ****       134.2500 161.2500 152.7500 Du        
  30968 ****       134.2500 161.2500 153.0000 Du        
  30969 ****       134.2500 161.2500 153.2500 Du        
  30970 ****       134.2500 161.5000 151.7500 Du        
  30971 ****       134.2500 161.5000 152.0000 Du        
  30972 ****       134.2500 161.5000 152.2500 Du        
  30973 ****       134.2500 161.5000 152.5000 Du        
  30974 ****       134.2500 161.5000 152.7500 Du        
  30975 ****       134.2500 161.5000 153.0000 Du        
  30976 ****       134.2500 161.7500 151.7500 Du        
  30977 ****       134.2500 161.7500 152.0000 Du        
  30978 ****       134.2500 161.7500 152.2500 Du        
  30979 ****       134.2500 161.7500 152.5000 Du        
  30980 ****       134.2500 161.7500 152.7500 Du        
  30981 ****       134.2500 162.0000 151.7500 Du        
  30982 ****       134.2500 162.0000 152.0000 Du        
  30983 ****       134.2500 162.0000 152.2500 Du        
  30984 ****       134.2500 162.0000 152.5000 Du        
  30985 ****       134.2500 162.0000 152.7500 Du        
  30986 ****       134.2500 162.2500 152.0000 Du        
  30987 ****       134.2500 162.2500 152.5000 Du        
  30988 ****       134.5000 121.0000 145.0000 Du        
  30989 ****       134.5000 121.0000 145.2500 Du        
  30990 ****       134.5000 121.0000 145.5000 Du        
  30991 ****       134.5000 121.0000 145.7500 Du        
  30992 ****       134.5000 121.0000 146.0000 Du        
  30993 ****       134.5000 121.0000 146.2500 Du        
  30994 ****       134.5000 121.0000 146.5000 Du        
  30995 ****       134.5000 121.0000 146.7500 Du        
  30996 ****       134.5000 121.0000 147.0000 Du        
  30997 ****       134.5000 121.2500 144.7500 Du        
  30998 ****       134.5000 121.2500 145.0000 Du        
  30999 ****       134.5000 121.2500 145.2500 Du        
  31000 ****       134.5000 121.2500 145.5000 Du        
  31001 ****       134.5000 121.2500 145.7500 Du        
  31002 ****       134.5000 121.2500 146.0000 Du        
  31003 ****       134.5000 121.2500 146.2500 Du        
  31004 ****       134.5000 121.2500 146.5000 Du        
  31005 ****       134.5000 121.2500 146.7500 Du        
  31006 ****       134.5000 121.2500 147.0000 Du        
  31007 ****       134.5000 121.2500 147.2500 Du        
  31008 ****       134.5000 121.5000 144.7500 Du        
  31009 ****       134.5000 121.5000 145.0000 Du        
  31010 ****       134.5000 121.5000 145.2500 Du        
  31011 ****       134.5000 121.5000 145.5000 Du        
  31012 ****       134.5000 121.5000 145.7500 Du        
  31013 ****       134.5000 121.5000 146.0000 Du        
  31014 ****       134.5000 121.5000 146.2500 Du        
  31015 ****       134.5000 121.5000 146.5000 Du        
  31016 ****       134.5000 121.5000 146.7500 Du        
  31017 ****       134.5000 121.5000 147.0000 Du        
  31018 ****       134.5000 121.5000 147.2500 Du        
  31019 ****       134.5000 121.5000 147.5000 Du        
  31020 ****       134.5000 121.7500 144.7500 Du        
  31021 ****       134.5000 121.7500 145.0000 Du        
  31022 ****       134.5000 121.7500 145.2500 Du        
  31023 ****       134.5000 121.7500 145.5000 Du        
  31024 ****       134.5000 121.7500 145.7500 Du        
  31025 ****       134.5000 121.7500 146.0000 Du        
  31026 ****       134.5000 121.7500 146.2500 Du        
  31027 ****       134.5000 121.7500 146.5000 Du        
  31028 ****       134.5000 121.7500 146.7500 Du        
  31029 ****       134.5000 121.7500 147.0000 Du        
  31030 ****       134.5000 121.7500 147.2500 Du        
  31031 ****       134.5000 121.7500 147.5000 Du        
  31032 ****       134.5000 121.7500 147.7500 Du        
  31033 ****       134.5000 122.0000 144.7500 Du        
  31034 ****       134.5000 122.0000 145.0000 Du        
  31035 ****       134.5000 122.0000 145.2500 Du        
  31036 ****       134.5000 122.0000 145.5000 Du        
  31037 ****       134.5000 122.0000 145.7500 Du        
  31038 ****       134.5000 122.0000 146.0000 Du        
  31039 ****       134.5000 122.0000 146.2500 Du        
  31040 ****       134.5000 122.0000 146.5000 Du        
  31041 ****       134.5000 122.0000 146.7500 Du        
  31042 ****       134.5000 122.0000 147.0000 Du        
  31043 ****       134.5000 122.0000 147.2500 Du        
  31044 ****       134.5000 122.0000 147.5000 Du        
  31045 ****       134.5000 122.0000 147.7500 Du        
  31046 ****       134.5000 122.0000 148.0000 Du        
  31047 ****       134.5000 122.2500 147.2500 Du        
  31048 ****       134.5000 122.2500 147.5000 Du        
  31049 ****       134.5000 122.2500 147.7500 Du        
  31050 ****       134.5000 122.2500 148.0000 Du        
  31051 ****       134.5000 122.5000 148.0000 Du        
  31052 ****       134.5000 126.5000  93.2500 Du        
  31053 ****       134.5000 126.5000  93.7500 Du        
  31054 ****       134.5000 126.5000  95.5000 Du        
  31055 ****       134.5000 126.5000  95.7500 Du        
  31056 ****       134.5000 126.5000  96.0000 Du        
  31057 ****       134.5000 126.7500  95.5000 Du        
  31058 ****       134.5000 126.7500  95.7500 Du        
  31059 ****       134.5000 126.7500  96.0000 Du        
  31060 ****       134.5000 127.0000  96.0000 Du        
  31061 ****       134.5000 133.7500 158.0000 Du        
  31062 ****       134.5000 136.2500 104.0000 Du        
  31063 ****       134.5000 136.5000 103.7500 Du        
  31064 ****       134.5000 136.5000 104.0000 Du        
  31065 ****       134.5000 136.5000 104.2500 Du        
  31066 ****       134.5000 136.7500  89.5000 Du        
  31067 ****       134.5000 136.7500 103.7500 Du        
  31068 ****       134.5000 136.7500 104.0000 Du        
  31069 ****       134.5000 136.7500 104.2500 Du        
  31070 ****       134.5000 136.7500 104.5000 Du        
  31071 ****       134.5000 137.0000  89.0000 Du        
  31072 ****       134.5000 137.0000  89.2500 Du        
  31073 ****       134.5000 137.0000  89.5000 Du        
  31074 ****       134.5000 137.0000  89.7500 Du        
  31075 ****       134.5000 137.0000 103.5000 Du        
  31076 ****       134.5000 137.0000 103.7500 Du        
  31077 ****       134.5000 137.0000 104.0000 Du        
  31078 ****       134.5000 137.0000 104.2500 Du        
  31079 ****       134.5000 137.0000 104.5000 Du        
  31080 ****       134.5000 137.0000 104.7500 Du        
  31081 ****       134.5000 137.2500  88.7500 Du        
  31082 ****       134.5000 137.2500  89.0000 Du        
  31083 ****       134.5000 137.2500  89.2500 Du        
  31084 ****       134.5000 137.2500  89.5000 Du        
  31085 ****       134.5000 137.2500  89.7500 Du        
  31086 ****       134.5000 137.2500  90.0000 Du        
  31087 ****       134.5000 137.2500  97.0000 Du        
  31088 ****       134.5000 137.2500 103.5000 Du        
  31089 ****       134.5000 137.2500 103.7500 Du        
  31090 ****       134.5000 137.2500 104.0000 Du        
  31091 ****       134.5000 137.2500 104.2500 Du        
  31092 ****       134.5000 137.2500 104.5000 Du        
  31093 ****       134.5000 137.2500 104.7500 Du        
  31094 ****       134.5000 137.2500 105.0000 Du        
  31095 ****       134.5000 137.5000  89.0000 Du        
  31096 ****       134.5000 137.5000  89.2500 Du        
  31097 ****       134.5000 137.5000  89.5000 Du        
  31098 ****       134.5000 137.5000  89.7500 Du        
  31099 ****       134.5000 137.5000  90.0000 Du        
  31100 ****       134.5000 137.5000  96.7500 Du        
  31101 ****       134.5000 137.5000  97.0000 Du        
  31102 ****       134.5000 137.5000 103.2500 Du        
  31103 ****       134.5000 137.5000 103.5000 Du        
  31104 ****       134.5000 137.5000 103.7500 Du        
  31105 ****       134.5000 137.5000 104.0000 Du        
  31106 ****       134.5000 137.5000 104.2500 Du        
  31107 ****       134.5000 137.5000 104.5000 Du        
  31108 ****       134.5000 137.5000 104.7500 Du        
  31109 ****       134.5000 137.5000 105.0000 Du        
  31110 ****       134.5000 137.5000 105.2500 Du        
  31111 ****       134.5000 137.5000 105.5000 Du        
  31112 ****       134.5000 137.7500  89.2500 Du        
  31113 ****       134.5000 137.7500  89.5000 Du        
  31114 ****       134.5000 137.7500  89.7500 Du        
  31115 ****       134.5000 137.7500  90.0000 Du        
  31116 ****       134.5000 137.7500  96.7500 Du        
  31117 ****       134.5000 137.7500  97.0000 Du        
  31118 ****       134.5000 137.7500 103.0000 Du        
  31119 ****       134.5000 137.7500 103.2500 Du        
  31120 ****       134.5000 137.7500 103.5000 Du        
  31121 ****       134.5000 137.7500 103.7500 Du        
  31122 ****       134.5000 137.7500 104.0000 Du        
  31123 ****       134.5000 137.7500 104.2500 Du        
  31124 ****       134.5000 137.7500 104.5000 Du        
  31125 ****       134.5000 137.7500 104.7500 Du        
  31126 ****       134.5000 137.7500 105.0000 Du        
  31127 ****       134.5000 137.7500 105.2500 Du        
  31128 ****       134.5000 137.7500 105.5000 Du        
  31129 ****       134.5000 137.7500 105.7500 Du        
  31130 ****       134.5000 137.7500 106.0000 Du        
  31131 ****       134.5000 137.7500 106.2500 Du        
  31132 ****       134.5000 138.0000  89.5000 Du        
  31133 ****       134.5000 138.0000  89.7500 Du        
  31134 ****       134.5000 138.0000  90.0000 Du        
  31135 ****       134.5000 138.0000  90.2500 Du        
  31136 ****       134.5000 138.0000  96.5000 Du        
  31137 ****       134.5000 138.0000  96.7500 Du        
  31138 ****       134.5000 138.0000  97.0000 Du        
  31139 ****       134.5000 138.0000  97.2500 Du        
  31140 ****       134.5000 138.0000 103.0000 Du        
  31141 ****       134.5000 138.0000 103.2500 Du        
  31142 ****       134.5000 138.0000 103.5000 Du        
  31143 ****       134.5000 138.0000 103.7500 Du        
  31144 ****       134.5000 138.0000 104.0000 Du        
  31145 ****       134.5000 138.0000 104.2500 Du        
  31146 ****       134.5000 138.0000 104.5000 Du        
  31147 ****       134.5000 138.0000 104.7500 Du        
  31148 ****       134.5000 138.0000 105.0000 Du        
  31149 ****       134.5000 138.0000 105.2500 Du        
  31150 ****       134.5000 138.0000 105.5000 Du        
  31151 ****       134.5000 138.0000 105.7500 Du        
  31152 ****       134.5000 138.0000 106.0000 Du        
  31153 ****       134.5000 138.0000 106.2500 Du        
  31154 ****       134.5000 138.0000 106.5000 Du        
  31155 ****       134.5000 138.2500  96.2500 Du        
  31156 ****       134.5000 138.2500  96.5000 Du        
  31157 ****       134.5000 138.2500  96.7500 Du        
  31158 ****       134.5000 138.2500  97.0000 Du        
  31159 ****       134.5000 138.2500  97.2500 Du        
  31160 ****       134.5000 138.2500 102.7500 Du        
  31161 ****       134.5000 138.2500 103.0000 Du        
  31162 ****       134.5000 138.2500 103.2500 Du        
  31163 ****       134.5000 138.2500 103.5000 Du        
  31164 ****       134.5000 138.2500 103.7500 Du        
  31165 ****       134.5000 138.2500 104.0000 Du        
  31166 ****       134.5000 138.2500 104.2500 Du        
  31167 ****       134.5000 138.2500 104.5000 Du        
  31168 ****       134.5000 138.2500 104.7500 Du        
  31169 ****       134.5000 138.2500 105.0000 Du        
  31170 ****       134.5000 138.2500 105.2500 Du        
  31171 ****       134.5000 138.2500 105.5000 Du        
  31172 ****       134.5000 138.2500 105.7500 Du        
  31173 ****       134.5000 138.2500 106.0000 Du        
  31174 ****       134.5000 138.2500 106.2500 Du        
  31175 ****       134.5000 138.5000  96.2500 Du        
  31176 ****       134.5000 138.5000  96.5000 Du        
  31177 ****       134.5000 138.5000  96.7500 Du        
  31178 ****       134.5000 138.5000  97.0000 Du        
  31179 ****       134.5000 138.5000  97.2500 Du        
  31180 ****       134.5000 138.5000 102.5000 Du        
  31181 ****       134.5000 138.5000 102.7500 Du        
  31182 ****       134.5000 138.5000 103.0000 Du        
  31183 ****       134.5000 138.5000 103.2500 Du        
  31184 ****       134.5000 138.5000 103.5000 Du        
  31185 ****       134.5000 138.5000 103.7500 Du        
  31186 ****       134.5000 138.5000 104.0000 Du        
  31187 ****       134.5000 138.5000 104.2500 Du        
  31188 ****       134.5000 138.5000 104.5000 Du        
  31189 ****       134.5000 138.5000 104.7500 Du        
  31190 ****       134.5000 138.5000 105.0000 Du        
  31191 ****       134.5000 138.5000 105.2500 Du        
  31192 ****       134.5000 138.5000 105.5000 Du        
  31193 ****       134.5000 138.5000 105.7500 Du        
  31194 ****       134.5000 138.5000 106.0000 Du        
  31195 ****       134.5000 138.7500  96.0000 Du        
  31196 ****       134.5000 138.7500  96.2500 Du        
  31197 ****       134.5000 138.7500  96.5000 Du        
  31198 ****       134.5000 138.7500  96.7500 Du        
  31199 ****       134.5000 138.7500  97.0000 Du        
  31200 ****       134.5000 138.7500  97.2500 Du        
  31201 ****       134.5000 138.7500 102.5000 Du        
  31202 ****       134.5000 138.7500 102.7500 Du        
  31203 ****       134.5000 138.7500 103.0000 Du        
  31204 ****       134.5000 138.7500 103.2500 Du        
  31205 ****       134.5000 138.7500 103.5000 Du        
  31206 ****       134.5000 138.7500 103.7500 Du        
  31207 ****       134.5000 138.7500 104.0000 Du        
  31208 ****       134.5000 138.7500 104.2500 Du        
  31209 ****       134.5000 138.7500 104.5000 Du        
  31210 ****       134.5000 138.7500 104.7500 Du        
  31211 ****       134.5000 138.7500 105.0000 Du        
  31212 ****       134.5000 138.7500 105.2500 Du        
  31213 ****       134.5000 138.7500 105.5000 Du        
  31214 ****       134.5000 138.7500 105.7500 Du        
  31215 ****       134.5000 139.0000  95.7500 Du        
  31216 ****       134.5000 139.0000  96.0000 Du        
  31217 ****       134.5000 139.0000  96.2500 Du        
  31218 ****       134.5000 139.0000  96.5000 Du        
  31219 ****       134.5000 139.0000  96.7500 Du        
  31220 ****       134.5000 139.0000  97.0000 Du        
  31221 ****       134.5000 139.0000  97.2500 Du        
  31222 ****       134.5000 139.0000 102.5000 Du        
  31223 ****       134.5000 139.0000 102.7500 Du        
  31224 ****       134.5000 139.0000 103.0000 Du        
  31225 ****       134.5000 139.0000 103.2500 Du        
  31226 ****       134.5000 139.0000 103.5000 Du        
  31227 ****       134.5000 139.0000 103.7500 Du        
  31228 ****       134.5000 139.0000 104.0000 Du        
  31229 ****       134.5000 139.0000 104.2500 Du        
  31230 ****       134.5000 139.0000 104.5000 Du        
  31231 ****       134.5000 139.0000 104.7500 Du        
  31232 ****       134.5000 139.0000 105.0000 Du        
  31233 ****       134.5000 139.0000 105.2500 Du        
  31234 ****       134.5000 139.0000 105.5000 Du        
  31235 ****       134.5000 139.2500  96.0000 Du        
  31236 ****       134.5000 139.2500  96.2500 Du        
  31237 ****       134.5000 139.2500  96.5000 Du        
  31238 ****       134.5000 139.2500  96.7500 Du        
  31239 ****       134.5000 139.2500  97.0000 Du        
  31240 ****       134.5000 139.2500  97.2500 Du        
  31241 ****       134.5000 139.2500 102.5000 Du        
  31242 ****       134.5000 139.2500 102.7500 Du        
  31243 ****       134.5000 139.2500 103.0000 Du        
  31244 ****       134.5000 139.2500 103.2500 Du        
  31245 ****       134.5000 139.2500 103.5000 Du        
  31246 ****       134.5000 139.2500 103.7500 Du        
  31247 ****       134.5000 139.2500 104.0000 Du        
  31248 ****       134.5000 139.2500 104.2500 Du        
  31249 ****       134.5000 139.2500 104.5000 Du        
  31250 ****       134.5000 139.2500 104.7500 Du        
  31251 ****       134.5000 139.2500 105.0000 Du        
  31252 ****       134.5000 139.2500 105.2500 Du        
  31253 ****       134.5000 142.2500 128.5000 Du        
  31254 ****       134.5000 142.2500 128.7500 Du        
  31255 ****       134.5000 142.2500 129.0000 Du        
  31256 ****       134.5000 142.2500 129.2500 Du        
  31257 ****       134.5000 142.5000 128.0000 Du        
  31258 ****       134.5000 142.5000 128.2500 Du        
  31259 ****       134.5000 142.5000 128.5000 Du        
  31260 ****       134.5000 142.5000 128.7500 Du        
  31261 ****       134.5000 142.5000 129.0000 Du        
  31262 ****       134.5000 142.5000 129.2500 Du        
  31263 ****       134.5000 142.5000 129.5000 Du        
  31264 ****       134.5000 142.5000 129.7500 Du        
  31265 ****       134.5000 142.7500 127.7500 Du        
  31266 ****       134.5000 142.7500 128.0000 Du        
  31267 ****       134.5000 142.7500 128.2500 Du        
  31268 ****       134.5000 142.7500 128.5000 Du        
  31269 ****       134.5000 142.7500 128.7500 Du        
  31270 ****       134.5000 142.7500 129.0000 Du        
  31271 ****       134.5000 142.7500 129.2500 Du        
  31272 ****       134.5000 142.7500 129.5000 Du        
  31273 ****       134.5000 142.7500 129.7500 Du        
  31274 ****       134.5000 142.7500 130.0000 Du        
  31275 ****       134.5000 142.7500 130.2500 Du        
  31276 ****       134.5000 143.0000 127.2500 Du        
  31277 ****       134.5000 143.0000 127.5000 Du        
  31278 ****       134.5000 143.0000 127.7500 Du        
  31279 ****       134.5000 143.0000 128.0000 Du        
  31280 ****       134.5000 143.0000 128.2500 Du        
  31281 ****       134.5000 143.0000 128.5000 Du        
  31282 ****       134.5000 143.0000 128.7500 Du        
  31283 ****       134.5000 143.0000 129.0000 Du        
  31284 ****       134.5000 143.0000 129.2500 Du        
  31285 ****       134.5000 143.0000 129.5000 Du        
  31286 ****       134.5000 143.0000 129.7500 Du        
  31287 ****       134.5000 143.0000 130.0000 Du        
  31288 ****       134.5000 143.0000 130.2500 Du        
  31289 ****       134.5000 143.0000 130.5000 Du        
  31290 ****       134.5000 143.2500 127.0000 Du        
  31291 ****       134.5000 143.2500 127.2500 Du        
  31292 ****       134.5000 143.2500 127.5000 Du        
  31293 ****       134.5000 143.2500 127.7500 Du        
  31294 ****       134.5000 143.2500 128.0000 Du        
  31295 ****       134.5000 143.2500 128.2500 Du        
  31296 ****       134.5000 143.2500 128.5000 Du        
  31297 ****       134.5000 143.2500 128.7500 Du        
  31298 ****       134.5000 143.2500 129.0000 Du        
  31299 ****       134.5000 143.2500 129.2500 Du        
  31300 ****       134.5000 143.2500 129.5000 Du        
  31301 ****       134.5000 143.2500 129.7500 Du        
  31302 ****       134.5000 143.2500 130.0000 Du        
  31303 ****       134.5000 143.2500 130.2500 Du        
  31304 ****       134.5000 143.2500 130.5000 Du        
  31305 ****       134.5000 143.2500 130.7500 Du        
  31306 ****       134.5000 143.5000 126.2500 Du        
  31307 ****       134.5000 143.5000 126.5000 Du        
  31308 ****       134.5000 143.5000 126.7500 Du        
  31309 ****       134.5000 143.5000 127.0000 Du        
  31310 ****       134.5000 143.5000 127.2500 Du        
  31311 ****       134.5000 143.5000 127.5000 Du        
  31312 ****       134.5000 143.5000 127.7500 Du        
  31313 ****       134.5000 143.5000 128.0000 Du        
  31314 ****       134.5000 143.5000 128.2500 Du        
  31315 ****       134.5000 143.5000 128.5000 Du        
  31316 ****       134.5000 143.5000 128.7500 Du        
  31317 ****       134.5000 143.5000 129.0000 Du        
  31318 ****       134.5000 143.5000 129.2500 Du        
  31319 ****       134.5000 143.5000 129.5000 Du        
  31320 ****       134.5000 143.5000 129.7500 Du        
  31321 ****       134.5000 143.5000 130.0000 Du        
  31322 ****       134.5000 143.5000 130.2500 Du        
  31323 ****       134.5000 143.5000 130.5000 Du        
  31324 ****       134.5000 143.5000 130.7500 Du        
  31325 ****       134.5000 143.7500 126.2500 Du        
  31326 ****       134.5000 143.7500 126.5000 Du        
  31327 ****       134.5000 143.7500 126.7500 Du        
  31328 ****       134.5000 143.7500 127.0000 Du        
  31329 ****       134.5000 143.7500 127.2500 Du        
  31330 ****       134.5000 143.7500 127.5000 Du        
  31331 ****       134.5000 143.7500 127.7500 Du        
  31332 ****       134.5000 143.7500 128.0000 Du        
  31333 ****       134.5000 143.7500 128.2500 Du        
  31334 ****       134.5000 143.7500 128.5000 Du        
  31335 ****       134.5000 143.7500 128.7500 Du        
  31336 ****       134.5000 143.7500 129.0000 Du        
  31337 ****       134.5000 143.7500 129.2500 Du        
  31338 ****       134.5000 143.7500 129.5000 Du        
  31339 ****       134.5000 143.7500 129.7500 Du        
  31340 ****       134.5000 143.7500 130.0000 Du        
  31341 ****       134.5000 143.7500 130.2500 Du        
  31342 ****       134.5000 143.7500 130.5000 Du        
  31343 ****       134.5000 143.7500 130.7500 Du        
  31344 ****       134.5000 143.7500 131.0000 Du        
  31345 ****       134.5000 144.0000 126.2500 Du        
  31346 ****       134.5000 144.0000 126.5000 Du        
  31347 ****       134.5000 144.0000 126.7500 Du        
  31348 ****       134.5000 144.0000 127.0000 Du        
  31349 ****       134.5000 144.0000 127.2500 Du        
  31350 ****       134.5000 144.0000 127.5000 Du        
  31351 ****       134.5000 144.0000 127.7500 Du        
  31352 ****       134.5000 144.0000 128.0000 Du        
  31353 ****       134.5000 144.0000 128.2500 Du        
  31354 ****       134.5000 144.0000 128.5000 Du        
  31355 ****       134.5000 144.0000 128.7500 Du        
  31356 ****       134.5000 144.0000 129.0000 Du        
  31357 ****       134.5000 144.0000 129.2500 Du        
  31358 ****       134.5000 144.0000 129.7500 Du        
  31359 ****       134.5000 144.0000 130.0000 Du        
  31360 ****       134.5000 144.0000 130.2500 Du        
  31361 ****       134.5000 144.0000 130.5000 Du        
  31362 ****       134.5000 144.0000 130.7500 Du        
  31363 ****       134.5000 144.0000 131.0000 Du        
  31364 ****       134.5000 144.2500 126.2500 Du        
  31365 ****       134.5000 144.2500 126.5000 Du        
  31366 ****       134.5000 144.2500 126.7500 Du        
  31367 ****       134.5000 144.2500 127.0000 Du        
  31368 ****       134.5000 144.5000 126.2500 Du        
  31369 ****       134.5000 146.2500 123.0000 Du        
  31370 ****       134.5000 147.5000 119.5000 Du        
  31371 ****       134.5000 147.5000 119.7500 Du        
  31372 ****       134.5000 147.7500 119.0000 Du        
  31373 ****       134.5000 147.7500 119.2500 Du        
  31374 ****       134.5000 147.7500 119.5000 Du        
  31375 ****       134.5000 147.7500 119.7500 Du        
  31376 ****       134.5000 147.7500 120.0000 Du        
  31377 ****       134.5000 147.7500 120.2500 Du        
  31378 ****       134.5000 148.0000 119.0000 Du        
  31379 ****       134.5000 148.0000 119.2500 Du        
  31380 ****       134.5000 148.0000 119.5000 Du        
  31381 ****       134.5000 148.0000 119.7500 Du        
  31382 ****       134.5000 148.0000 120.0000 Du        
  31383 ****       134.5000 148.0000 120.2500 Du        
  31384 ****       134.5000 148.2500 118.7500 Du        
  31385 ****       134.5000 148.2500 119.0000 Du        
  31386 ****       134.5000 148.2500 119.2500 Du        
  31387 ****       134.5000 148.2500 119.5000 Du        
  31388 ****       134.5000 148.2500 119.7500 Du        
  31389 ****       134.5000 148.2500 120.0000 Du        
  31390 ****       134.5000 148.2500 120.2500 Du        
  31391 ****       134.5000 148.5000 119.0000 Du        
  31392 ****       134.5000 148.5000 119.2500 Du        
  31393 ****       134.5000 148.5000 119.5000 Du        
  31394 ****       134.5000 148.5000 119.7500 Du        
  31395 ****       134.5000 153.0000 108.0000 Du        
  31396 ****       134.5000 153.0000 108.2500 Du        
  31397 ****       134.5000 153.0000 108.5000 Du        
  31398 ****       134.5000 153.0000 108.7500 Du        
  31399 ****       134.5000 153.0000 109.0000 Du        
  31400 ****       134.5000 153.2500 107.7500 Du        
  31401 ****       134.5000 153.2500 108.0000 Du        
  31402 ****       134.5000 153.2500 108.2500 Du        
  31403 ****       134.5000 153.2500 108.5000 Du        
  31404 ****       134.5000 153.2500 108.7500 Du        
  31405 ****       134.5000 153.2500 109.0000 Du        
  31406 ****       134.5000 153.2500 109.2500 Du        
  31407 ****       134.5000 153.2500 109.5000 Du        
  31408 ****       134.5000 153.5000 107.7500 Du        
  31409 ****       134.5000 153.5000 108.0000 Du        
  31410 ****       134.5000 153.5000 108.2500 Du        
  31411 ****       134.5000 153.5000 108.5000 Du        
  31412 ****       134.5000 153.5000 108.7500 Du        
  31413 ****       134.5000 153.5000 109.0000 Du        
  31414 ****       134.5000 153.5000 109.2500 Du        
  31415 ****       134.5000 153.5000 109.5000 Du        
  31416 ****       134.5000 153.7500 107.7500 Du        
  31417 ****       134.5000 153.7500 108.0000 Du        
  31418 ****       134.5000 153.7500 108.2500 Du        
  31419 ****       134.5000 153.7500 108.5000 Du        
  31420 ****       134.5000 153.7500 108.7500 Du        
  31421 ****       134.5000 153.7500 109.0000 Du        
  31422 ****       134.5000 153.7500 109.2500 Du        
  31423 ****       134.5000 153.7500 109.5000 Du        
  31424 ****       134.5000 153.7500 109.7500 Du        
  31425 ****       134.5000 154.0000 107.7500 Du        
  31426 ****       134.5000 154.0000 108.0000 Du        
  31427 ****       134.5000 154.0000 108.2500 Du        
  31428 ****       134.5000 154.0000 108.5000 Du        
  31429 ****       134.5000 154.0000 108.7500 Du        
  31430 ****       134.5000 154.0000 109.0000 Du        
  31431 ****       134.5000 154.0000 109.2500 Du        
  31432 ****       134.5000 154.0000 109.5000 Du        
  31433 ****       134.5000 154.0000 109.7500 Du        
  31434 ****       134.5000 154.0000 110.0000 Du        
  31435 ****       134.5000 154.2500 107.7500 Du        
  31436 ****       134.5000 154.2500 108.0000 Du        
  31437 ****       134.5000 154.2500 108.2500 Du        
  31438 ****       134.5000 154.2500 108.5000 Du        
  31439 ****       134.5000 154.2500 108.7500 Du        
  31440 ****       134.5000 154.2500 109.0000 Du        
  31441 ****       134.5000 154.2500 109.2500 Du        
  31442 ****       134.5000 154.2500 109.5000 Du        
  31443 ****       134.5000 154.5000 107.7500 Du        
  31444 ****       134.5000 154.5000 108.0000 Du        
  31445 ****       134.5000 154.5000 108.2500 Du        
  31446 ****       134.5000 154.5000 108.5000 Du        
  31447 ****       134.5000 154.5000 108.7500 Du        
  31448 ****       134.5000 154.5000 109.0000 Du        
  31449 ****       134.5000 154.7500 107.7500 Du        
  31450 ****       134.5000 154.7500 108.0000 Du        
  31451 ****       134.5000 154.7500 108.2500 Du        
  31452 ****       134.5000 154.7500 108.5000 Du        
  31453 ****       134.5000 154.7500 108.7500 Du        
  31454 ****       134.5000 155.0000 107.7500 Du        
  31455 ****       134.5000 155.0000 108.0000 Du        
  31456 ****       134.5000 155.0000 108.2500 Du        
  31457 ****       134.5000 155.2500 107.2500 Du        
  31458 ****       134.5000 160.2500 152.5000 Du        
  31459 ****       134.5000 160.5000 152.2500 Du        
  31460 ****       134.5000 160.5000 152.5000 Du        
  31461 ****       134.5000 160.5000 152.7500 Du        
  31462 ****       134.5000 160.5000 153.0000 Du        
  31463 ****       134.5000 160.7500 152.0000 Du        
  31464 ****       134.5000 160.7500 152.2500 Du        
  31465 ****       134.5000 160.7500 152.5000 Du        
  31466 ****       134.5000 160.7500 152.7500 Du        
  31467 ****       134.5000 160.7500 153.0000 Du        
  31468 ****       134.5000 160.7500 153.2500 Du        
  31469 ****       134.5000 160.7500 153.5000 Du        
  31470 ****       134.5000 161.0000 152.0000 Du        
  31471 ****       134.5000 161.0000 152.2500 Du        
  31472 ****       134.5000 161.0000 152.5000 Du        
  31473 ****       134.5000 161.0000 152.7500 Du        
  31474 ****       134.5000 161.0000 153.0000 Du        
  31475 ****       134.5000 161.0000 153.2500 Du        
  31476 ****       134.5000 161.0000 153.5000 Du        
  31477 ****       134.5000 161.0000 153.7500 Du        
  31478 ****       134.5000 161.2500 151.7500 Du        
  31479 ****       134.5000 161.2500 152.0000 Du        
  31480 ****       134.5000 161.2500 152.2500 Du        
  31481 ****       134.5000 161.2500 152.5000 Du        
  31482 ****       134.5000 161.2500 152.7500 Du        
  31483 ****       134.5000 161.2500 153.0000 Du        
  31484 ****       134.5000 161.2500 153.2500 Du        
  31485 ****       134.5000 161.2500 153.5000 Du        
  31486 ****       134.5000 161.2500 153.7500 Du        
  31487 ****       134.5000 161.5000 152.0000 Du        
  31488 ****       134.5000 161.5000 152.2500 Du        
  31489 ****       134.5000 161.5000 152.5000 Du        
  31490 ****       134.5000 161.5000 152.7500 Du        
  31491 ****       134.5000 161.5000 153.0000 Du        
  31492 ****       134.5000 161.5000 153.2500 Du        
  31493 ****       134.5000 161.5000 153.5000 Du        
  31494 ****       134.5000 161.5000 153.7500 Du        
  31495 ****       134.5000 161.7500 152.0000 Du        
  31496 ****       134.5000 161.7500 152.2500 Du        
  31497 ****       134.5000 161.7500 152.5000 Du        
  31498 ****       134.5000 161.7500 152.7500 Du        
  31499 ****       134.5000 161.7500 153.0000 Du        
  31500 ****       134.5000 161.7500 153.2500 Du        
  31501 ****       134.5000 161.7500 153.5000 Du        
  31502 ****       134.5000 162.0000 152.0000 Du        
  31503 ****       134.5000 162.0000 152.2500 Du        
  31504 ****       134.5000 162.0000 152.5000 Du        
  31505 ****       134.5000 162.0000 152.7500 Du        
  31506 ****       134.5000 162.0000 153.0000 Du        
  31507 ****       134.5000 162.0000 153.2500 Du        
  31508 ****       134.5000 162.0000 153.5000 Du        
  31509 ****       134.5000 162.2500 152.2500 Du        
  31510 ****       134.5000 162.2500 152.5000 Du        
  31511 ****       134.5000 162.2500 152.7500 Du        
  31512 ****       134.5000 162.2500 153.0000 Du        
  31513 ****       134.7500 121.0000 145.0000 Du        
  31514 ****       134.7500 121.0000 145.2500 Du        
  31515 ****       134.7500 121.0000 145.5000 Du        
  31516 ****       134.7500 121.0000 145.7500 Du        
  31517 ****       134.7500 121.0000 146.0000 Du        
  31518 ****       134.7500 121.0000 146.2500 Du        
  31519 ****       134.7500 121.0000 146.5000 Du        
  31520 ****       134.7500 121.0000 146.7500 Du        
  31521 ****       134.7500 121.0000 147.0000 Du        
  31522 ****       134.7500 121.0000 147.2500 Du        
  31523 ****       134.7500 121.2500 145.0000 Du        
  31524 ****       134.7500 121.2500 145.2500 Du        
  31525 ****       134.7500 121.2500 145.5000 Du        
  31526 ****       134.7500 121.2500 145.7500 Du        
  31527 ****       134.7500 121.2500 146.0000 Du        
  31528 ****       134.7500 121.2500 146.2500 Du        
  31529 ****       134.7500 121.2500 146.5000 Du        
  31530 ****       134.7500 121.2500 146.7500 Du        
  31531 ****       134.7500 121.2500 147.0000 Du        
  31532 ****       134.7500 121.2500 147.2500 Du        
  31533 ****       134.7500 121.2500 147.5000 Du        
  31534 ****       134.7500 121.5000 144.7500 Du        
  31535 ****       134.7500 121.5000 145.0000 Du        
  31536 ****       134.7500 121.5000 145.2500 Du        
  31537 ****       134.7500 121.5000 145.5000 Du        
  31538 ****       134.7500 121.5000 145.7500 Du        
  31539 ****       134.7500 121.5000 146.0000 Du        
  31540 ****       134.7500 121.5000 146.2500 Du        
  31541 ****       134.7500 121.5000 146.5000 Du        
  31542 ****       134.7500 121.5000 146.7500 Du        
  31543 ****       134.7500 121.5000 147.0000 Du        
  31544 ****       134.7500 121.5000 147.2500 Du        
  31545 ****       134.7500 121.5000 147.5000 Du        
  31546 ****       134.7500 121.5000 147.7500 Du        
  31547 ****       134.7500 121.7500 144.7500 Du        
  31548 ****       134.7500 121.7500 145.0000 Du        
  31549 ****       134.7500 121.7500 145.2500 Du        
  31550 ****       134.7500 121.7500 145.5000 Du        
  31551 ****       134.7500 121.7500 145.7500 Du        
  31552 ****       134.7500 121.7500 146.0000 Du        
  31553 ****       134.7500 121.7500 146.2500 Du        
  31554 ****       134.7500 121.7500 146.5000 Du        
  31555 ****       134.7500 121.7500 146.7500 Du        
  31556 ****       134.7500 121.7500 147.0000 Du        
  31557 ****       134.7500 121.7500 147.2500 Du        
  31558 ****       134.7500 121.7500 147.5000 Du        
  31559 ****       134.7500 121.7500 147.7500 Du        
  31560 ****       134.7500 121.7500 148.0000 Du        
  31561 ****       134.7500 122.0000 146.7500 Du        
  31562 ****       134.7500 122.0000 147.0000 Du        
  31563 ****       134.7500 122.0000 147.2500 Du        
  31564 ****       134.7500 122.0000 147.5000 Du        
  31565 ****       134.7500 122.0000 147.7500 Du        
  31566 ****       134.7500 122.0000 148.0000 Du        
  31567 ****       134.7500 122.0000 148.2500 Du        
  31568 ****       134.7500 122.2500 147.5000 Du        
  31569 ****       134.7500 122.2500 147.7500 Du        
  31570 ****       134.7500 122.2500 148.0000 Du        
  31571 ****       134.7500 122.2500 148.2500 Du        
  31572 ****       134.7500 122.5000 148.0000 Du        
  31573 ****       134.7500 122.5000 148.2500 Du        
  31574 ****       134.7500 126.2500  93.0000 Du        
  31575 ****       134.7500 126.5000  93.0000 Du        
  31576 ****       134.7500 126.5000  93.2500 Du        
  31577 ****       134.7500 126.5000  93.5000 Du        
  31578 ****       134.7500 126.5000  93.7500 Du        
  31579 ****       134.7500 126.5000  94.0000 Du        
  31580 ****       134.7500 126.5000  94.2500 Du        
  31581 ****       134.7500 126.5000  94.5000 Du        
  31582 ****       134.7500 126.5000  94.7500 Du        
  31583 ****       134.7500 126.5000  95.2500 Du        
  31584 ****       134.7500 126.5000  95.5000 Du        
  31585 ****       134.7500 126.5000  95.7500 Du        
  31586 ****       134.7500 126.5000  96.0000 Du        
  31587 ****       134.7500 126.7500  93.0000 Du        
  31588 ****       134.7500 126.7500  93.2500 Du        
  31589 ****       134.7500 126.7500  93.7500 Du        
  31590 ****       134.7500 126.7500  94.0000 Du        
  31591 ****       134.7500 126.7500  95.0000 Du        
  31592 ****       134.7500 126.7500  95.2500 Du        
  31593 ****       134.7500 126.7500  95.5000 Du        
  31594 ****       134.7500 126.7500  95.7500 Du        
  31595 ****       134.7500 126.7500  96.0000 Du        
  31596 ****       134.7500 127.0000  95.7500 Du        
  31597 ****       134.7500 127.0000  96.0000 Du        
  31598 ****       134.7500 133.2500 158.2500 Du        
  31599 ****       134.7500 133.2500 158.5000 Du        
  31600 ****       134.7500 133.2500 158.7500 Du        
  31601 ****       134.7500 133.2500 159.0000 Du        
  31602 ****       134.7500 133.2500 159.2500 Du        
  31603 ****       134.7500 133.5000 158.0000 Du        
  31604 ****       134.7500 133.5000 158.2500 Du        
  31605 ****       134.7500 133.5000 158.5000 Du        
  31606 ****       134.7500 133.5000 158.7500 Du        
  31607 ****       134.7500 133.5000 159.0000 Du        
  31608 ****       134.7500 133.5000 159.2500 Du        
  31609 ****       134.7500 133.5000 159.5000 Du        
  31610 ****       134.7500 133.7500 157.7500 Du        
  31611 ****       134.7500 133.7500 158.0000 Du        
  31612 ****       134.7500 133.7500 158.2500 Du        
  31613 ****       134.7500 133.7500 158.5000 Du        
  31614 ****       134.7500 133.7500 158.7500 Du        
  31615 ****       134.7500 133.7500 159.0000 Du        
  31616 ****       134.7500 135.2500 104.0000 Du        
  31617 ****       134.7500 135.5000 104.0000 Du        
  31618 ****       134.7500 135.7500 104.0000 Du        
  31619 ****       134.7500 135.7500 104.2500 Du        
  31620 ****       134.7500 136.0000 103.7500 Du        
  31621 ****       134.7500 136.0000 104.0000 Du        
  31622 ****       134.7500 136.0000 104.2500 Du        
  31623 ****       134.7500 136.2500 103.7500 Du        
  31624 ****       134.7500 136.2500 104.0000 Du        
  31625 ****       134.7500 136.2500 104.2500 Du        
  31626 ****       134.7500 136.2500 104.5000 Du        
  31627 ****       134.7500 136.5000 103.7500 Du        
  31628 ****       134.7500 136.5000 104.0000 Du        
  31629 ****       134.7500 136.5000 104.2500 Du        
  31630 ****       134.7500 136.5000 104.5000 Du        
  31631 ****       134.7500 136.7500 103.5000 Du        
  31632 ****       134.7500 136.7500 103.7500 Du        
  31633 ****       134.7500 136.7500 104.0000 Du        
  31634 ****       134.7500 136.7500 104.2500 Du        
  31635 ****       134.7500 136.7500 104.5000 Du        
  31636 ****       134.7500 136.7500 104.7500 Du        
  31637 ****       134.7500 137.0000  89.2500 Du        
  31638 ****       134.7500 137.0000  89.5000 Du        
  31639 ****       134.7500 137.0000  89.7500 Du        
  31640 ****       134.7500 137.0000  97.0000 Du        
  31641 ****       134.7500 137.0000 103.2500 Du        
  31642 ****       134.7500 137.0000 103.5000 Du        
  31643 ****       134.7500 137.0000 103.7500 Du        
  31644 ****       134.7500 137.0000 104.0000 Du        
  31645 ****       134.7500 137.0000 104.2500 Du        
  31646 ****       134.7500 137.0000 104.5000 Du        
  31647 ****       134.7500 137.0000 104.7500 Du        
  31648 ****       134.7500 137.0000 105.0000 Du        
  31649 ****       134.7500 137.2500  89.0000 Du        
  31650 ****       134.7500 137.2500  89.2500 Du        
  31651 ****       134.7500 137.2500  89.5000 Du        
  31652 ****       134.7500 137.2500  89.7500 Du        
  31653 ****       134.7500 137.2500  97.0000 Du        
  31654 ****       134.7500 137.2500 103.2500 Du        
  31655 ****       134.7500 137.2500 103.5000 Du        
  31656 ****       134.7500 137.2500 103.7500 Du        
  31657 ****       134.7500 137.2500 104.0000 Du        
  31658 ****       134.7500 137.2500 104.2500 Du        
  31659 ****       134.7500 137.2500 104.5000 Du        
  31660 ****       134.7500 137.2500 104.7500 Du        
  31661 ****       134.7500 137.2500 105.0000 Du        
  31662 ****       134.7500 137.2500 105.2500 Du        
  31663 ****       134.7500 137.2500 105.5000 Du        
  31664 ****       134.7500 137.5000  89.0000 Du        
  31665 ****       134.7500 137.5000  89.2500 Du        
  31666 ****       134.7500 137.5000  89.5000 Du        
  31667 ****       134.7500 137.5000  89.7500 Du        
  31668 ****       134.7500 137.5000  96.7500 Du        
  31669 ****       134.7500 137.5000  97.0000 Du        
  31670 ****       134.7500 137.5000 103.0000 Du        
  31671 ****       134.7500 137.5000 103.2500 Du        
  31672 ****       134.7500 137.5000 103.5000 Du        
  31673 ****       134.7500 137.5000 103.7500 Du        
  31674 ****       134.7500 137.5000 104.0000 Du        
  31675 ****       134.7500 137.5000 104.2500 Du        
  31676 ****       134.7500 137.5000 104.5000 Du        
  31677 ****       134.7500 137.5000 104.7500 Du        
  31678 ****       134.7500 137.5000 105.0000 Du        
  31679 ****       134.7500 137.5000 105.2500 Du        
  31680 ****       134.7500 137.5000 105.5000 Du        
  31681 ****       134.7500 137.5000 105.7500 Du        
  31682 ****       134.7500 137.5000 106.0000 Du        
  31683 ****       134.7500 137.7500  89.2500 Du        
  31684 ****       134.7500 137.7500  89.5000 Du        
  31685 ****       134.7500 137.7500  89.7500 Du        
  31686 ****       134.7500 137.7500  90.0000 Du        
  31687 ****       134.7500 137.7500  96.7500 Du        
  31688 ****       134.7500 137.7500  97.0000 Du        
  31689 ****       134.7500 137.7500  97.2500 Du        
  31690 ****       134.7500 137.7500 103.0000 Du        
  31691 ****       134.7500 137.7500 103.2500 Du        
  31692 ****       134.7500 137.7500 103.5000 Du        
  31693 ****       134.7500 137.7500 103.7500 Du        
  31694 ****       134.7500 137.7500 104.0000 Du        
  31695 ****       134.7500 137.7500 104.2500 Du        
  31696 ****       134.7500 137.7500 104.5000 Du        
  31697 ****       134.7500 137.7500 104.7500 Du        
  31698 ****       134.7500 137.7500 105.0000 Du        
  31699 ****       134.7500 137.7500 105.2500 Du        
  31700 ****       134.7500 137.7500 105.5000 Du        
  31701 ****       134.7500 137.7500 105.7500 Du        
  31702 ****       134.7500 137.7500 106.0000 Du        
  31703 ****       134.7500 137.7500 106.2500 Du        
  31704 ****       134.7500 138.0000  89.7500 Du        
  31705 ****       134.7500 138.0000  90.0000 Du        
  31706 ****       134.7500 138.0000  90.2500 Du        
  31707 ****       134.7500 138.0000  96.5000 Du        
  31708 ****       134.7500 138.0000  96.7500 Du        
  31709 ****       134.7500 138.0000  97.0000 Du        
  31710 ****       134.7500 138.0000  97.2500 Du        
  31711 ****       134.7500 138.0000 102.7500 Du        
  31712 ****       134.7500 138.0000 103.0000 Du        
  31713 ****       134.7500 138.0000 103.2500 Du        
  31714 ****       134.7500 138.0000 103.5000 Du        
  31715 ****       134.7500 138.0000 103.7500 Du        
  31716 ****       134.7500 138.0000 104.0000 Du        
  31717 ****       134.7500 138.0000 104.2500 Du        
  31718 ****       134.7500 138.0000 104.5000 Du        
  31719 ****       134.7500 138.0000 104.7500 Du        
  31720 ****       134.7500 138.0000 105.0000 Du        
  31721 ****       134.7500 138.0000 105.2500 Du        
  31722 ****       134.7500 138.0000 105.5000 Du        
  31723 ****       134.7500 138.0000 105.7500 Du        
  31724 ****       134.7500 138.0000 106.0000 Du        
  31725 ****       134.7500 138.0000 106.2500 Du        
  31726 ****       134.7500 138.2500  96.2500 Du        
  31727 ****       134.7500 138.2500  96.5000 Du        
  31728 ****       134.7500 138.2500  96.7500 Du        
  31729 ****       134.7500 138.2500  97.0000 Du        
  31730 ****       134.7500 138.2500  97.2500 Du        
  31731 ****       134.7500 138.2500 102.7500 Du        
  31732 ****       134.7500 138.2500 103.0000 Du        
  31733 ****       134.7500 138.2500 103.2500 Du        
  31734 ****       134.7500 138.2500 103.5000 Du        
  31735 ****       134.7500 138.2500 103.7500 Du        
  31736 ****       134.7500 138.2500 104.0000 Du        
  31737 ****       134.7500 138.2500 104.2500 Du        
  31738 ****       134.7500 138.2500 104.5000 Du        
  31739 ****       134.7500 138.2500 104.7500 Du        
  31740 ****       134.7500 138.2500 105.0000 Du        
  31741 ****       134.7500 138.2500 105.2500 Du        
  31742 ****       134.7500 138.2500 105.5000 Du        
  31743 ****       134.7500 138.2500 105.7500 Du        
  31744 ****       134.7500 138.2500 106.0000 Du        
  31745 ****       134.7500 138.2500 106.2500 Du        
  31746 ****       134.7500 138.5000  96.2500 Du        
  31747 ****       134.7500 138.5000  96.5000 Du        
  31748 ****       134.7500 138.5000  96.7500 Du        
  31749 ****       134.7500 138.5000  97.0000 Du        
  31750 ****       134.7500 138.5000  97.2500 Du        
  31751 ****       134.7500 138.5000 102.5000 Du        
  31752 ****       134.7500 138.5000 102.7500 Du        
  31753 ****       134.7500 138.5000 103.0000 Du        
  31754 ****       134.7500 138.5000 103.2500 Du        
  31755 ****       134.7500 138.5000 103.5000 Du        
  31756 ****       134.7500 138.5000 103.7500 Du        
  31757 ****       134.7500 138.5000 104.0000 Du        
  31758 ****       134.7500 138.5000 104.2500 Du        
  31759 ****       134.7500 138.5000 104.5000 Du        
  31760 ****       134.7500 138.5000 104.7500 Du        
  31761 ****       134.7500 138.5000 105.0000 Du        
  31762 ****       134.7500 138.5000 105.2500 Du        
  31763 ****       134.7500 138.5000 105.5000 Du        
  31764 ****       134.7500 138.5000 105.7500 Du        
  31765 ****       134.7500 138.5000 106.0000 Du        
  31766 ****       134.7500 138.7500  95.7500 Du        
  31767 ****       134.7500 138.7500  96.0000 Du        
  31768 ****       134.7500 138.7500  96.2500 Du        
  31769 ****       134.7500 138.7500  96.5000 Du        
  31770 ****       134.7500 138.7500  96.7500 Du        
  31771 ****       134.7500 138.7500  97.0000 Du        
  31772 ****       134.7500 138.7500  97.2500 Du        
  31773 ****       134.7500 138.7500 102.2500 Du        
  31774 ****       134.7500 138.7500 102.5000 Du        
  31775 ****       134.7500 138.7500 102.7500 Du        
  31776 ****       134.7500 138.7500 103.0000 Du        
  31777 ****       134.7500 138.7500 103.2500 Du        
  31778 ****       134.7500 138.7500 103.5000 Du        
  31779 ****       134.7500 138.7500 103.7500 Du        
  31780 ****       134.7500 138.7500 104.0000 Du        
  31781 ****       134.7500 138.7500 104.2500 Du        
  31782 ****       134.7500 138.7500 104.5000 Du        
  31783 ****       134.7500 138.7500 104.7500 Du        
  31784 ****       134.7500 138.7500 105.0000 Du        
  31785 ****       134.7500 138.7500 105.2500 Du        
  31786 ****       134.7500 138.7500 105.5000 Du        
  31787 ****       134.7500 138.7500 105.7500 Du        
  31788 ****       134.7500 139.0000  95.7500 Du        
  31789 ****       134.7500 139.0000  96.0000 Du        
  31790 ****       134.7500 139.0000  96.2500 Du        
  31791 ****       134.7500 139.0000  96.5000 Du        
  31792 ****       134.7500 139.0000  96.7500 Du        
  31793 ****       134.7500 139.0000  97.0000 Du        
  31794 ****       134.7500 139.0000  97.2500 Du        
  31795 ****       134.7500 139.0000 102.2500 Du        
  31796 ****       134.7500 139.0000 102.5000 Du        
  31797 ****       134.7500 139.0000 102.7500 Du        
  31798 ****       134.7500 139.0000 103.0000 Du        
  31799 ****       134.7500 139.0000 103.2500 Du        
  31800 ****       134.7500 139.0000 103.5000 Du        
  31801 ****       134.7500 139.0000 103.7500 Du        
  31802 ****       134.7500 139.0000 104.0000 Du        
  31803 ****       134.7500 139.0000 104.2500 Du        
  31804 ****       134.7500 139.0000 104.5000 Du        
  31805 ****       134.7500 139.0000 104.7500 Du        
  31806 ****       134.7500 139.0000 105.0000 Du        
  31807 ****       134.7500 139.0000 105.2500 Du        
  31808 ****       134.7500 139.0000 105.5000 Du        
  31809 ****       134.7500 139.2500  95.5000 Du        
  31810 ****       134.7500 139.2500  95.7500 Du        
  31811 ****       134.7500 139.2500  96.0000 Du        
  31812 ****       134.7500 139.2500  96.2500 Du        
  31813 ****       134.7500 139.2500  96.5000 Du        
  31814 ****       134.7500 139.2500  96.7500 Du        
  31815 ****       134.7500 139.2500  97.0000 Du        
  31816 ****       134.7500 139.2500 102.5000 Du        
  31817 ****       134.7500 139.2500 102.7500 Du        
  31818 ****       134.7500 139.2500 103.0000 Du        
  31819 ****       134.7500 139.2500 103.2500 Du        
  31820 ****       134.7500 139.2500 103.5000 Du        
  31821 ****       134.7500 139.2500 103.7500 Du        
  31822 ****       134.7500 139.2500 104.0000 Du        
  31823 ****       134.7500 139.2500 104.2500 Du        
  31824 ****       134.7500 139.2500 104.5000 Du        
  31825 ****       134.7500 139.2500 104.7500 Du        
  31826 ****       134.7500 139.2500 105.0000 Du        
  31827 ****       134.7500 139.2500 105.2500 Du        
  31828 ****       134.7500 142.2500 128.7500 Du        
  31829 ****       134.7500 142.2500 129.0000 Du        
  31830 ****       134.7500 142.2500 129.2500 Du        
  31831 ****       134.7500 142.5000 128.5000 Du        
  31832 ****       134.7500 142.5000 128.7500 Du        
  31833 ****       134.7500 142.5000 129.0000 Du        
  31834 ****       134.7500 142.5000 129.2500 Du        
  31835 ****       134.7500 142.5000 129.5000 Du        
  31836 ****       134.7500 142.5000 129.7500 Du        
  31837 ****       134.7500 142.7500 128.2500 Du        
  31838 ****       134.7500 142.7500 128.5000 Du        
  31839 ****       134.7500 142.7500 128.7500 Du        
  31840 ****       134.7500 142.7500 129.0000 Du        
  31841 ****       134.7500 142.7500 129.2500 Du        
  31842 ****       134.7500 142.7500 129.5000 Du        
  31843 ****       134.7500 142.7500 129.7500 Du        
  31844 ****       134.7500 142.7500 130.0000 Du        
  31845 ****       134.7500 142.7500 130.2500 Du        
  31846 ****       134.7500 143.0000 128.0000 Du        
  31847 ****       134.7500 143.0000 128.2500 Du        
  31848 ****       134.7500 143.0000 128.5000 Du        
  31849 ****       134.7500 143.0000 128.7500 Du        
  31850 ****       134.7500 143.0000 129.0000 Du        
  31851 ****       134.7500 143.0000 129.2500 Du        
  31852 ****       134.7500 143.0000 129.5000 Du        
  31853 ****       134.7500 143.0000 129.7500 Du        
  31854 ****       134.7500 143.0000 130.0000 Du        
  31855 ****       134.7500 143.0000 130.2500 Du        
  31856 ****       134.7500 143.2500 127.7500 Du        
  31857 ****       134.7500 143.2500 128.0000 Du        
  31858 ****       134.7500 143.2500 128.2500 Du        
  31859 ****       134.7500 143.2500 128.5000 Du        
  31860 ****       134.7500 143.2500 128.7500 Du        
  31861 ****       134.7500 143.2500 129.0000 Du        
  31862 ****       134.7500 143.2500 129.2500 Du        
  31863 ****       134.7500 143.2500 129.5000 Du        
  31864 ****       134.7500 143.2500 129.7500 Du        
  31865 ****       134.7500 143.2500 130.0000 Du        
  31866 ****       134.7500 143.2500 130.2500 Du        
  31867 ****       134.7500 143.2500 130.5000 Du        
  31868 ****       134.7500 143.5000 127.7500 Du        
  31869 ****       134.7500 143.5000 128.0000 Du        
  31870 ****       134.7500 143.5000 128.2500 Du        
  31871 ****       134.7500 143.5000 128.5000 Du        
  31872 ****       134.7500 143.5000 128.7500 Du        
  31873 ****       134.7500 143.5000 129.0000 Du        
  31874 ****       134.7500 143.5000 129.2500 Du        
  31875 ****       134.7500 143.5000 129.5000 Du        
  31876 ****       134.7500 143.5000 129.7500 Du        
  31877 ****       134.7500 143.5000 130.0000 Du        
  31878 ****       134.7500 143.5000 130.2500 Du        
  31879 ****       134.7500 143.5000 130.5000 Du        
  31880 ****       134.7500 143.7500 126.2500 Du        
  31881 ****       134.7500 143.7500 127.0000 Du        
  31882 ****       134.7500 143.7500 127.2500 Du        
  31883 ****       134.7500 143.7500 127.5000 Du        
  31884 ****       134.7500 143.7500 127.7500 Du        
  31885 ****       134.7500 143.7500 128.0000 Du        
  31886 ****       134.7500 143.7500 128.2500 Du        
  31887 ****       134.7500 143.7500 128.5000 Du        
  31888 ****       134.7500 143.7500 128.7500 Du        
  31889 ****       134.7500 143.7500 129.0000 Du        
  31890 ****       134.7500 143.7500 129.2500 Du        
  31891 ****       134.7500 143.7500 129.5000 Du        
  31892 ****       134.7500 143.7500 129.7500 Du        
  31893 ****       134.7500 143.7500 130.0000 Du        
  31894 ****       134.7500 143.7500 130.2500 Du        
  31895 ****       134.7500 143.7500 130.5000 Du        
  31896 ****       134.7500 143.7500 130.7500 Du        
  31897 ****       134.7500 144.0000 126.2500 Du        
  31898 ****       134.7500 144.0000 126.7500 Du        
  31899 ****       134.7500 144.0000 127.0000 Du        
  31900 ****       134.7500 144.0000 127.2500 Du        
  31901 ****       134.7500 144.0000 127.5000 Du        
  31902 ****       134.7500 144.0000 127.7500 Du        
  31903 ****       134.7500 144.0000 128.0000 Du        
  31904 ****       134.7500 144.0000 128.2500 Du        
  31905 ****       134.7500 144.0000 128.5000 Du        
  31906 ****       134.7500 144.0000 128.7500 Du        
  31907 ****       134.7500 144.0000 129.0000 Du        
  31908 ****       134.7500 144.0000 129.2500 Du        
  31909 ****       134.7500 144.0000 129.5000 Du        
  31910 ****       134.7500 144.0000 129.7500 Du        
  31911 ****       134.7500 144.0000 130.0000 Du        
  31912 ****       134.7500 144.0000 130.2500 Du        
  31913 ****       134.7500 144.0000 130.5000 Du        
  31914 ****       134.7500 144.0000 130.7500 Du        
  31915 ****       134.7500 144.0000 131.0000 Du        
  31916 ****       134.7500 144.2500 126.2500 Du        
  31917 ****       134.7500 144.2500 129.2500 Du        
  31918 ****       134.7500 146.2500 123.0000 Du        
  31919 ****       134.7500 147.5000 119.2500 Du        
  31920 ****       134.7500 147.5000 119.5000 Du        
  31921 ****       134.7500 147.5000 119.7500 Du        
  31922 ****       134.7500 147.5000 120.0000 Du        
  31923 ****       134.7500 147.5000 120.2500 Du        
  31924 ****       134.7500 147.7500 118.7500 Du        
  31925 ****       134.7500 147.7500 119.0000 Du        
  31926 ****       134.7500 147.7500 119.2500 Du        
  31927 ****       134.7500 147.7500 119.5000 Du        
  31928 ****       134.7500 147.7500 119.7500 Du        
  31929 ****       134.7500 147.7500 120.0000 Du        
  31930 ****       134.7500 147.7500 120.2500 Du        
  31931 ****       134.7500 147.7500 120.5000 Du        
  31932 ****       134.7500 147.7500 120.7500 Du        
  31933 ****       134.7500 148.0000 118.7500 Du        
  31934 ****       134.7500 148.0000 119.0000 Du        
  31935 ****       134.7500 148.0000 119.2500 Du        
  31936 ****       134.7500 148.0000 119.5000 Du        
  31937 ****       134.7500 148.0000 119.7500 Du        
  31938 ****       134.7500 148.0000 120.0000 Du        
  31939 ****       134.7500 148.0000 120.2500 Du        
  31940 ****       134.7500 148.0000 120.5000 Du        
  31941 ****       134.7500 148.2500 118.5000 Du        
  31942 ****       134.7500 148.2500 118.7500 Du        
  31943 ****       134.7500 148.2500 119.0000 Du        
  31944 ****       134.7500 148.2500 119.2500 Du        
  31945 ****       134.7500 148.2500 119.5000 Du        
  31946 ****       134.7500 148.2500 119.7500 Du        
  31947 ****       134.7500 148.2500 120.0000 Du        
  31948 ****       134.7500 148.2500 120.2500 Du        
  31949 ****       134.7500 148.5000 118.7500 Du        
  31950 ****       134.7500 148.5000 119.0000 Du        
  31951 ****       134.7500 148.5000 119.2500 Du        
  31952 ****       134.7500 148.5000 119.5000 Du        
  31953 ****       134.7500 148.5000 119.7500 Du        
  31954 ****       134.7500 153.0000 107.7500 Du        
  31955 ****       134.7500 153.0000 108.0000 Du        
  31956 ****       134.7500 153.0000 108.2500 Du        
  31957 ****       134.7500 153.0000 108.5000 Du        
  31958 ****       134.7500 153.0000 108.7500 Du        
  31959 ****       134.7500 153.0000 109.0000 Du        
  31960 ****       134.7500 153.2500 107.7500 Du        
  31961 ****       134.7500 153.2500 108.0000 Du        
  31962 ****       134.7500 153.2500 108.2500 Du        
  31963 ****       134.7500 153.2500 108.5000 Du        
  31964 ****       134.7500 153.2500 108.7500 Du        
  31965 ****       134.7500 153.2500 109.0000 Du        
  31966 ****       134.7500 153.2500 109.2500 Du        
  31967 ****       134.7500 153.2500 109.5000 Du        
  31968 ****       134.7500 153.5000 107.7500 Du        
  31969 ****       134.7500 153.5000 108.0000 Du        
  31970 ****       134.7500 153.5000 108.2500 Du        
  31971 ****       134.7500 153.5000 108.5000 Du        
  31972 ****       134.7500 153.5000 108.7500 Du        
  31973 ****       134.7500 153.5000 109.0000 Du        
  31974 ****       134.7500 153.5000 109.2500 Du        
  31975 ****       134.7500 153.7500 107.7500 Du        
  31976 ****       134.7500 153.7500 108.0000 Du        
  31977 ****       134.7500 153.7500 108.2500 Du        
  31978 ****       134.7500 153.7500 108.5000 Du        
  31979 ****       134.7500 153.7500 108.7500 Du        
  31980 ****       134.7500 153.7500 109.0000 Du        
  31981 ****       134.7500 153.7500 109.2500 Du        
  31982 ****       134.7500 153.7500 109.5000 Du        
  31983 ****       134.7500 153.7500 109.7500 Du        
  31984 ****       134.7500 154.0000 107.5000 Du        
  31985 ****       134.7500 154.0000 107.7500 Du        
  31986 ****       134.7500 154.0000 108.0000 Du        
  31987 ****       134.7500 154.0000 108.2500 Du        
  31988 ****       134.7500 154.0000 108.5000 Du        
  31989 ****       134.7500 154.0000 108.7500 Du        
  31990 ****       134.7500 154.0000 109.0000 Du        
  31991 ****       134.7500 154.0000 109.2500 Du        
  31992 ****       134.7500 154.0000 109.5000 Du        
  31993 ****       134.7500 154.0000 109.7500 Du        
  31994 ****       134.7500 154.2500 107.5000 Du        
  31995 ****       134.7500 154.2500 107.7500 Du        
  31996 ****       134.7500 154.2500 108.0000 Du        
  31997 ****       134.7500 154.2500 108.2500 Du        
  31998 ****       134.7500 154.2500 108.5000 Du        
  31999 ****       134.7500 154.2500 108.7500 Du        
  32000 ****       134.7500 154.2500 109.0000 Du        
  32001 ****       134.7500 154.2500 109.2500 Du        
  32002 ****       134.7500 154.5000 107.7500 Du        
  32003 ****       134.7500 154.5000 108.0000 Du        
  32004 ****       134.7500 154.5000 108.2500 Du        
  32005 ****       134.7500 154.5000 108.5000 Du        
  32006 ****       134.7500 154.5000 108.7500 Du        
  32007 ****       134.7500 154.7500 107.7500 Du        
  32008 ****       134.7500 154.7500 108.0000 Du        
  32009 ****       134.7500 155.0000 107.2500 Du        
  32010 ****       134.7500 155.2500 107.2500 Du        
  32011 ****       134.7500 160.2500 152.2500 Du        
  32012 ****       134.7500 160.2500 152.5000 Du        
  32013 ****       134.7500 160.2500 152.7500 Du        
  32014 ****       134.7500 160.5000 152.2500 Du        
  32015 ****       134.7500 160.5000 152.5000 Du        
  32016 ****       134.7500 160.5000 152.7500 Du        
  32017 ****       134.7500 160.5000 153.0000 Du        
  32018 ****       134.7500 160.7500 152.0000 Du        
  32019 ****       134.7500 160.7500 152.2500 Du        
  32020 ****       134.7500 160.7500 152.5000 Du        
  32021 ****       134.7500 160.7500 152.7500 Du        
  32022 ****       134.7500 160.7500 153.0000 Du        
  32023 ****       134.7500 160.7500 153.2500 Du        
  32024 ****       134.7500 160.7500 153.5000 Du        
  32025 ****       134.7500 160.7500 153.7500 Du        
  32026 ****       134.7500 161.0000 152.0000 Du        
  32027 ****       134.7500 161.0000 152.2500 Du        
  32028 ****       134.7500 161.0000 152.5000 Du        
  32029 ****       134.7500 161.0000 152.7500 Du        
  32030 ****       134.7500 161.0000 153.0000 Du        
  32031 ****       134.7500 161.0000 153.2500 Du        
  32032 ****       134.7500 161.0000 153.5000 Du        
  32033 ****       134.7500 161.0000 153.7500 Du        
  32034 ****       134.7500 161.2500 152.0000 Du        
  32035 ****       134.7500 161.2500 152.2500 Du        
  32036 ****       134.7500 161.2500 152.5000 Du        
  32037 ****       134.7500 161.2500 152.7500 Du        
  32038 ****       134.7500 161.2500 153.0000 Du        
  32039 ****       134.7500 161.2500 153.2500 Du        
  32040 ****       134.7500 161.2500 153.5000 Du        
  32041 ****       134.7500 161.2500 153.7500 Du        
  32042 ****       134.7500 161.2500 154.0000 Du        
  32043 ****       134.7500 161.5000 152.0000 Du        
  32044 ****       134.7500 161.5000 152.2500 Du        
  32045 ****       134.7500 161.5000 152.5000 Du        
  32046 ****       134.7500 161.5000 152.7500 Du        
  32047 ****       134.7500 161.5000 153.0000 Du        
  32048 ****       134.7500 161.5000 153.2500 Du        
  32049 ****       134.7500 161.5000 153.5000 Du        
  32050 ****       134.7500 161.5000 153.7500 Du        
  32051 ****       134.7500 161.5000 154.0000 Du        
  32052 ****       134.7500 161.7500 152.0000 Du        
  32053 ****       134.7500 161.7500 152.2500 Du        
  32054 ****       134.7500 161.7500 152.5000 Du        
  32055 ****       134.7500 161.7500 152.7500 Du        
  32056 ****       134.7500 161.7500 153.0000 Du        
  32057 ****       134.7500 161.7500 153.2500 Du        
  32058 ****       134.7500 161.7500 153.5000 Du        
  32059 ****       134.7500 161.7500 153.7500 Du        
  32060 ****       134.7500 161.7500 154.0000 Du        
  32061 ****       134.7500 162.0000 152.2500 Du        
  32062 ****       134.7500 162.0000 152.5000 Du        
  32063 ****       134.7500 162.0000 152.7500 Du        
  32064 ****       134.7500 162.0000 153.0000 Du        
  32065 ****       134.7500 162.0000 153.2500 Du        
  32066 ****       134.7500 162.0000 153.5000 Du        
  32067 ****       134.7500 162.0000 153.7500 Du        
  32068 ****       134.7500 162.0000 154.0000 Du        
  32069 ****       134.7500 162.2500 152.2500 Du        
  32070 ****       134.7500 162.2500 152.5000 Du        
  32071 ****       134.7500 162.2500 152.7500 Du        
  32072 ****       134.7500 162.2500 153.0000 Du        
  32073 ****       134.7500 162.2500 153.2500 Du        
  32074 ****       134.7500 162.2500 153.5000 Du        
  32075 ****       134.7500 162.2500 153.7500 Du        
  32076 ****       134.7500 162.2500 154.0000 Du        
  32077 ****       134.7500 162.2500 154.2500 Du        
  32078 ****       134.7500 162.5000 153.0000 Du        
  32079 ****       134.7500 162.5000 153.2500 Du        
  32080 ****       134.7500 162.5000 153.5000 Du        
  32081 ****       134.7500 162.5000 153.7500 Du        
  32082 ****       134.7500 162.5000 154.0000 Du        
  32083 ****       134.7500 162.5000 154.2500 Du        
  32084 ****       134.7500 162.7500 153.0000 Du        
  32085 ****       134.7500 162.7500 153.2500 Du        
  32086 ****       134.7500 162.7500 153.5000 Du        
  32087 ****       134.7500 162.7500 153.7500 Du        
  32088 ****       134.7500 162.7500 154.0000 Du        
  32089 ****       134.7500 162.7500 154.2500 Du        
  32090 ****       134.7500 163.0000 153.0000 Du        
  32091 ****       134.7500 163.0000 153.2500 Du        
  32092 ****       134.7500 163.0000 153.5000 Du        
  32093 ****       134.7500 163.0000 153.7500 Du        
  32094 ****       134.7500 163.0000 154.0000 Du        
  32095 ****       134.7500 163.0000 154.2500 Du        
  32096 ****       134.7500 163.0000 154.5000 Du        
  32097 ****       134.7500 163.2500 153.2500 Du        
  32098 ****       134.7500 163.2500 153.5000 Du        
  32099 ****       134.7500 163.2500 153.7500 Du        
  32100 ****       134.7500 163.2500 154.0000 Du        
  32101 ****       134.7500 163.2500 154.2500 Du        
  32102 ****       134.7500 163.2500 154.5000 Du        
  32103 ****       134.7500 163.7500 154.2500 Du        
  32104 ****       134.7500 164.0000 154.2500 Du        
  32105 ****       135.0000 121.0000 145.0000 Du        
  32106 ****       135.0000 121.0000 145.2500 Du        
  32107 ****       135.0000 121.0000 145.5000 Du        
  32108 ****       135.0000 121.0000 145.7500 Du        
  32109 ****       135.0000 121.0000 146.0000 Du        
  32110 ****       135.0000 121.0000 146.2500 Du        
  32111 ****       135.0000 121.0000 146.5000 Du        
  32112 ****       135.0000 121.0000 146.7500 Du        
  32113 ****       135.0000 121.0000 147.0000 Du        
  32114 ****       135.0000 121.0000 147.2500 Du        
  32115 ****       135.0000 121.0000 147.5000 Du        
  32116 ****       135.0000 121.2500 145.0000 Du        
  32117 ****       135.0000 121.2500 145.2500 Du        
  32118 ****       135.0000 121.2500 145.5000 Du        
  32119 ****       135.0000 121.2500 145.7500 Du        
  32120 ****       135.0000 121.2500 146.0000 Du        
  32121 ****       135.0000 121.2500 146.2500 Du        
  32122 ****       135.0000 121.2500 146.5000 Du        
  32123 ****       135.0000 121.2500 146.7500 Du        
  32124 ****       135.0000 121.2500 147.0000 Du        
  32125 ****       135.0000 121.2500 147.2500 Du        
  32126 ****       135.0000 121.2500 147.5000 Du        
  32127 ****       135.0000 121.2500 147.7500 Du        
  32128 ****       135.0000 121.5000 145.0000 Du        
  32129 ****       135.0000 121.5000 145.2500 Du        
  32130 ****       135.0000 121.5000 145.5000 Du        
  32131 ****       135.0000 121.5000 145.7500 Du        
  32132 ****       135.0000 121.5000 146.0000 Du        
  32133 ****       135.0000 121.5000 146.2500 Du        
  32134 ****       135.0000 121.5000 146.5000 Du        
  32135 ****       135.0000 121.5000 146.7500 Du        
  32136 ****       135.0000 121.5000 147.0000 Du        
  32137 ****       135.0000 121.5000 147.2500 Du        
  32138 ****       135.0000 121.5000 147.5000 Du        
  32139 ****       135.0000 121.5000 147.7500 Du        
  32140 ****       135.0000 121.5000 148.0000 Du        
  32141 ****       135.0000 121.7500 145.2500 Du        
  32142 ****       135.0000 121.7500 146.5000 Du        
  32143 ****       135.0000 121.7500 146.7500 Du        
  32144 ****       135.0000 121.7500 147.0000 Du        
  32145 ****       135.0000 121.7500 147.2500 Du        
  32146 ****       135.0000 121.7500 147.5000 Du        
  32147 ****       135.0000 121.7500 147.7500 Du        
  32148 ****       135.0000 121.7500 148.0000 Du        
  32149 ****       135.0000 121.7500 148.2500 Du        
  32150 ****       135.0000 122.0000 147.0000 Du        
  32151 ****       135.0000 122.0000 147.2500 Du        
  32152 ****       135.0000 122.0000 147.5000 Du        
  32153 ****       135.0000 122.0000 147.7500 Du        
  32154 ****       135.0000 122.0000 148.0000 Du        
  32155 ****       135.0000 122.0000 148.2500 Du        
  32156 ****       135.0000 122.2500 147.5000 Du        
  32157 ****       135.0000 122.2500 147.7500 Du        
  32158 ****       135.0000 122.2500 148.0000 Du        
  32159 ****       135.0000 122.2500 148.2500 Du        
  32160 ****       135.0000 122.2500 148.5000 Du        
  32161 ****       135.0000 122.5000 148.0000 Du        
  32162 ****       135.0000 122.5000 148.2500 Du        
  32163 ****       135.0000 122.5000 148.5000 Du        
  32164 ****       135.0000 126.2500  93.0000 Du        
  32165 ****       135.0000 126.5000  93.0000 Du        
  32166 ****       135.0000 126.5000  93.2500 Du        
  32167 ****       135.0000 126.5000  93.5000 Du        
  32168 ****       135.0000 126.5000  93.7500 Du        
  32169 ****       135.0000 126.5000  94.0000 Du        
  32170 ****       135.0000 126.5000  94.5000 Du        
  32171 ****       135.0000 126.5000  94.7500 Du        
  32172 ****       135.0000 126.5000  95.5000 Du        
  32173 ****       135.0000 126.5000  95.7500 Du        
  32174 ****       135.0000 126.5000  96.0000 Du        
  32175 ****       135.0000 126.5000  96.7500 Du        
  32176 ****       135.0000 126.7500  93.0000 Du        
  32177 ****       135.0000 126.7500  93.2500 Du        
  32178 ****       135.0000 126.7500  93.5000 Du        
  32179 ****       135.0000 126.7500  93.7500 Du        
  32180 ****       135.0000 126.7500  94.0000 Du        
  32181 ****       135.0000 126.7500  94.5000 Du        
  32182 ****       135.0000 126.7500  94.7500 Du        
  32183 ****       135.0000 126.7500  95.0000 Du        
  32184 ****       135.0000 126.7500  95.2500 Du        
  32185 ****       135.0000 126.7500  95.5000 Du        
  32186 ****       135.0000 126.7500  95.7500 Du        
  32187 ****       135.0000 126.7500  96.0000 Du        
  32188 ****       135.0000 126.7500  96.7500 Du        
  32189 ****       135.0000 127.0000  95.7500 Du        
  32190 ****       135.0000 127.0000  96.0000 Du        
  32191 ****       135.0000 130.2500 151.5000 Du        
  32192 ****       135.0000 130.2500 151.7500 Du        
  32193 ****       135.0000 130.7500 151.5000 Du        
  32194 ****       135.0000 132.7500 159.0000 Du        
  32195 ****       135.0000 133.0000 158.5000 Du        
  32196 ****       135.0000 133.0000 158.7500 Du        
  32197 ****       135.0000 133.0000 159.0000 Du        
  32198 ****       135.0000 133.0000 159.2500 Du        
  32199 ****       135.0000 133.2500 158.2500 Du        
  32200 ****       135.0000 133.2500 158.5000 Du        
  32201 ****       135.0000 133.2500 158.7500 Du        
  32202 ****       135.0000 133.2500 159.0000 Du        
  32203 ****       135.0000 133.2500 159.2500 Du        
  32204 ****       135.0000 133.2500 159.5000 Du        
  32205 ****       135.0000 133.5000 158.0000 Du        
  32206 ****       135.0000 133.5000 158.2500 Du        
  32207 ****       135.0000 133.5000 158.5000 Du        
  32208 ****       135.0000 133.5000 158.7500 Du        
  32209 ****       135.0000 133.5000 159.0000 Du        
  32210 ****       135.0000 133.5000 159.2500 Du        
  32211 ****       135.0000 133.7500 157.7500 Du        
  32212 ****       135.0000 133.7500 158.0000 Du        
  32213 ****       135.0000 133.7500 158.2500 Du        
  32214 ****       135.0000 133.7500 158.5000 Du        
  32215 ****       135.0000 133.7500 158.7500 Du        
  32216 ****       135.0000 133.7500 159.0000 Du        
  32217 ****       135.0000 134.0000 157.7500 Du        
  32218 ****       135.0000 134.0000 158.0000 Du        
  32219 ****       135.0000 134.0000 158.2500 Du        
  32220 ****       135.0000 134.2500 104.2500 Du        
  32221 ****       135.0000 134.5000 104.0000 Du        
  32222 ****       135.0000 134.5000 104.2500 Du        
  32223 ****       135.0000 134.5000 104.5000 Du        
  32224 ****       135.0000 134.7500 104.0000 Du        
  32225 ****       135.0000 134.7500 104.2500 Du        
  32226 ****       135.0000 134.7500 104.5000 Du        
  32227 ****       135.0000 135.0000 103.7500 Du        
  32228 ****       135.0000 135.0000 104.0000 Du        
  32229 ****       135.0000 135.0000 104.2500 Du        
  32230 ****       135.0000 135.0000 104.5000 Du        
  32231 ****       135.0000 135.2500 103.7500 Du        
  32232 ****       135.0000 135.2500 104.0000 Du        
  32233 ****       135.0000 135.2500 104.2500 Du        
  32234 ****       135.0000 135.2500 104.5000 Du        
  32235 ****       135.0000 135.5000 103.7500 Du        
  32236 ****       135.0000 135.5000 104.0000 Du        
  32237 ****       135.0000 135.5000 104.2500 Du        
  32238 ****       135.0000 135.5000 104.5000 Du        
  32239 ****       135.0000 135.7500 103.7500 Du        
  32240 ****       135.0000 135.7500 104.0000 Du        
  32241 ****       135.0000 135.7500 104.2500 Du        
  32242 ****       135.0000 135.7500 104.5000 Du        
  32243 ****       135.0000 136.0000 103.5000 Du        
  32244 ****       135.0000 136.0000 103.7500 Du        
  32245 ****       135.0000 136.0000 104.0000 Du        
  32246 ****       135.0000 136.0000 104.2500 Du        
  32247 ****       135.0000 136.0000 104.5000 Du        
  32248 ****       135.0000 136.2500 103.5000 Du        
  32249 ****       135.0000 136.2500 103.7500 Du        
  32250 ****       135.0000 136.2500 104.0000 Du        
  32251 ****       135.0000 136.2500 104.2500 Du        
  32252 ****       135.0000 136.2500 104.5000 Du        
  32253 ****       135.0000 136.2500 104.7500 Du        
  32254 ****       135.0000 136.5000 103.5000 Du        
  32255 ****       135.0000 136.5000 103.7500 Du        
  32256 ****       135.0000 136.5000 104.0000 Du        
  32257 ****       135.0000 136.5000 104.2500 Du        
  32258 ****       135.0000 136.5000 104.5000 Du        
  32259 ****       135.0000 136.5000 104.7500 Du        
  32260 ****       135.0000 136.7500 103.2500 Du        
  32261 ****       135.0000 136.7500 103.5000 Du        
  32262 ****       135.0000 136.7500 103.7500 Du        
  32263 ****       135.0000 136.7500 104.0000 Du        
  32264 ****       135.0000 136.7500 104.2500 Du        
  32265 ****       135.0000 136.7500 104.5000 Du        
  32266 ****       135.0000 136.7500 104.7500 Du        
  32267 ****       135.0000 136.7500 105.0000 Du        
  32268 ****       135.0000 137.0000  89.5000 Du        
  32269 ****       135.0000 137.0000  89.7500 Du        
  32270 ****       135.0000 137.0000  97.0000 Du        
  32271 ****       135.0000 137.0000  97.2500 Du        
  32272 ****       135.0000 137.0000 103.2500 Du        
  32273 ****       135.0000 137.0000 103.5000 Du        
  32274 ****       135.0000 137.0000 103.7500 Du        
  32275 ****       135.0000 137.0000 104.0000 Du        
  32276 ****       135.0000 137.0000 104.2500 Du        
  32277 ****       135.0000 137.0000 104.5000 Du        
  32278 ****       135.0000 137.0000 104.7500 Du        
  32279 ****       135.0000 137.0000 105.0000 Du        
  32280 ****       135.0000 137.0000 105.2500 Du        
  32281 ****       135.0000 137.0000 105.5000 Du        
  32282 ****       135.0000 137.2500  89.2500 Du        
  32283 ****       135.0000 137.2500  89.5000 Du        
  32284 ****       135.0000 137.2500  89.7500 Du        
  32285 ****       135.0000 137.2500  96.7500 Du        
  32286 ****       135.0000 137.2500  97.0000 Du        
  32287 ****       135.0000 137.2500  97.2500 Du        
  32288 ****       135.0000 137.2500 103.0000 Du        
  32289 ****       135.0000 137.2500 103.2500 Du        
  32290 ****       135.0000 137.2500 103.5000 Du        
  32291 ****       135.0000 137.2500 103.7500 Du        
  32292 ****       135.0000 137.2500 104.0000 Du        
  32293 ****       135.0000 137.2500 104.2500 Du        
  32294 ****       135.0000 137.2500 104.5000 Du        
  32295 ****       135.0000 137.2500 104.7500 Du        
  32296 ****       135.0000 137.2500 105.0000 Du        
  32297 ****       135.0000 137.2500 105.2500 Du        
  32298 ****       135.0000 137.2500 105.5000 Du        
  32299 ****       135.0000 137.2500 105.7500 Du        
  32300 ****       135.0000 137.2500 106.0000 Du        
  32301 ****       135.0000 137.5000  89.2500 Du        
  32302 ****       135.0000 137.5000  89.5000 Du        
  32303 ****       135.0000 137.5000  89.7500 Du        
  32304 ****       135.0000 137.5000  96.7500 Du        
  32305 ****       135.0000 137.5000  97.0000 Du        
  32306 ****       135.0000 137.5000  97.2500 Du        
  32307 ****       135.0000 137.5000 103.0000 Du        
  32308 ****       135.0000 137.5000 103.2500 Du        
  32309 ****       135.0000 137.5000 103.5000 Du        
  32310 ****       135.0000 137.5000 103.7500 Du        
  32311 ****       135.0000 137.5000 104.0000 Du        
  32312 ****       135.0000 137.5000 104.2500 Du        
  32313 ****       135.0000 137.5000 104.5000 Du        
  32314 ****       135.0000 137.5000 104.7500 Du        
  32315 ****       135.0000 137.5000 105.0000 Du        
  32316 ****       135.0000 137.5000 105.2500 Du        
  32317 ****       135.0000 137.5000 105.5000 Du        
  32318 ****       135.0000 137.5000 105.7500 Du        
  32319 ****       135.0000 137.5000 106.0000 Du        
  32320 ****       135.0000 137.7500  89.7500 Du        
  32321 ****       135.0000 137.7500  90.0000 Du        
  32322 ****       135.0000 137.7500  96.7500 Du        
  32323 ****       135.0000 137.7500  97.0000 Du        
  32324 ****       135.0000 137.7500  97.2500 Du        
  32325 ****       135.0000 137.7500 102.7500 Du        
  32326 ****       135.0000 137.7500 103.0000 Du        
  32327 ****       135.0000 137.7500 103.2500 Du        
  32328 ****       135.0000 137.7500 103.5000 Du        
  32329 ****       135.0000 137.7500 103.7500 Du        
  32330 ****       135.0000 137.7500 104.0000 Du        
  32331 ****       135.0000 137.7500 104.2500 Du        
  32332 ****       135.0000 137.7500 104.5000 Du        
  32333 ****       135.0000 137.7500 104.7500 Du        
  32334 ****       135.0000 137.7500 105.0000 Du        
  32335 ****       135.0000 137.7500 105.2500 Du        
  32336 ****       135.0000 137.7500 105.5000 Du        
  32337 ****       135.0000 137.7500 105.7500 Du        
  32338 ****       135.0000 137.7500 106.0000 Du        
  32339 ****       135.0000 137.7500 106.2500 Du        
  32340 ****       135.0000 138.0000  90.0000 Du        
  32341 ****       135.0000 138.0000  90.2500 Du        
  32342 ****       135.0000 138.0000  96.5000 Du        
  32343 ****       135.0000 138.0000  96.7500 Du        
  32344 ****       135.0000 138.0000  97.0000 Du        
  32345 ****       135.0000 138.0000  97.2500 Du        
  32346 ****       135.0000 138.0000 102.7500 Du        
  32347 ****       135.0000 138.0000 103.0000 Du        
  32348 ****       135.0000 138.0000 103.2500 Du        
  32349 ****       135.0000 138.0000 103.5000 Du        
  32350 ****       135.0000 138.0000 103.7500 Du        
  32351 ****       135.0000 138.0000 104.0000 Du        
  32352 ****       135.0000 138.0000 104.2500 Du        
  32353 ****       135.0000 138.0000 104.5000 Du        
  32354 ****       135.0000 138.0000 104.7500 Du        
  32355 ****       135.0000 138.0000 105.0000 Du        
  32356 ****       135.0000 138.0000 105.2500 Du        
  32357 ****       135.0000 138.0000 105.5000 Du        
  32358 ****       135.0000 138.0000 105.7500 Du        
  32359 ****       135.0000 138.0000 106.0000 Du        
  32360 ****       135.0000 138.0000 106.2500 Du        
  32361 ****       135.0000 138.2500  96.5000 Du        
  32362 ****       135.0000 138.2500  96.7500 Du        
  32363 ****       135.0000 138.2500  97.0000 Du        
  32364 ****       135.0000 138.2500  97.2500 Du        
  32365 ****       135.0000 138.2500 102.5000 Du        
  32366 ****       135.0000 138.2500 102.7500 Du        
  32367 ****       135.0000 138.2500 103.0000 Du        
  32368 ****       135.0000 138.2500 103.2500 Du        
  32369 ****       135.0000 138.2500 103.5000 Du        
  32370 ****       135.0000 138.2500 103.7500 Du        
  32371 ****       135.0000 138.2500 104.0000 Du        
  32372 ****       135.0000 138.2500 104.2500 Du        
  32373 ****       135.0000 138.2500 104.5000 Du        
  32374 ****       135.0000 138.2500 104.7500 Du        
  32375 ****       135.0000 138.2500 105.0000 Du        
  32376 ****       135.0000 138.2500 105.2500 Du        
  32377 ****       135.0000 138.2500 105.5000 Du        
  32378 ****       135.0000 138.2500 105.7500 Du        
  32379 ****       135.0000 138.2500 106.0000 Du        
  32380 ****       135.0000 138.2500 106.2500 Du        
  32381 ****       135.0000 138.5000  96.5000 Du        
  32382 ****       135.0000 138.5000  96.7500 Du        
  32383 ****       135.0000 138.5000  97.0000 Du        
  32384 ****       135.0000 138.5000 102.5000 Du        
  32385 ****       135.0000 138.5000 102.7500 Du        
  32386 ****       135.0000 138.5000 103.0000 Du        
  32387 ****       135.0000 138.5000 103.2500 Du        
  32388 ****       135.0000 138.5000 103.5000 Du        
  32389 ****       135.0000 138.5000 103.7500 Du        
  32390 ****       135.0000 138.5000 104.0000 Du        
  32391 ****       135.0000 138.5000 104.2500 Du        
  32392 ****       135.0000 138.5000 104.5000 Du        
  32393 ****       135.0000 138.5000 104.7500 Du        
  32394 ****       135.0000 138.5000 105.0000 Du        
  32395 ****       135.0000 138.5000 105.2500 Du        
  32396 ****       135.0000 138.5000 105.5000 Du        
  32397 ****       135.0000 138.5000 105.7500 Du        
  32398 ****       135.0000 138.5000 106.0000 Du        
  32399 ****       135.0000 138.7500  96.2500 Du        
  32400 ****       135.0000 138.7500  96.5000 Du        
  32401 ****       135.0000 138.7500  96.7500 Du        
  32402 ****       135.0000 138.7500  97.0000 Du        
  32403 ****       135.0000 138.7500 102.5000 Du        
  32404 ****       135.0000 138.7500 102.7500 Du        
  32405 ****       135.0000 138.7500 103.0000 Du        
  32406 ****       135.0000 138.7500 103.2500 Du        
  32407 ****       135.0000 138.7500 103.5000 Du        
  32408 ****       135.0000 138.7500 103.7500 Du        
  32409 ****       135.0000 138.7500 104.0000 Du        
  32410 ****       135.0000 138.7500 104.2500 Du        
  32411 ****       135.0000 138.7500 104.5000 Du        
  32412 ****       135.0000 138.7500 104.7500 Du        
  32413 ****       135.0000 138.7500 105.0000 Du        
  32414 ****       135.0000 138.7500 105.2500 Du        
  32415 ****       135.0000 138.7500 105.5000 Du        
  32416 ****       135.0000 138.7500 105.7500 Du        
  32417 ****       135.0000 139.0000  96.2500 Du        
  32418 ****       135.0000 139.0000  96.5000 Du        
  32419 ****       135.0000 139.0000  96.7500 Du        
  32420 ****       135.0000 139.0000 102.5000 Du        
  32421 ****       135.0000 139.0000 102.7500 Du        
  32422 ****       135.0000 139.0000 103.0000 Du        
  32423 ****       135.0000 139.0000 103.2500 Du        
  32424 ****       135.0000 139.0000 103.5000 Du        
  32425 ****       135.0000 139.0000 103.7500 Du        
  32426 ****       135.0000 139.0000 104.0000 Du        
  32427 ****       135.0000 139.0000 104.2500 Du        
  32428 ****       135.0000 139.0000 104.5000 Du        
  32429 ****       135.0000 139.0000 104.7500 Du        
  32430 ****       135.0000 139.0000 105.0000 Du        
  32431 ****       135.0000 139.0000 105.2500 Du        
  32432 ****       135.0000 139.0000 105.5000 Du        
  32433 ****       135.0000 139.2500  96.5000 Du        
  32434 ****       135.0000 139.2500 104.0000 Du        
  32435 ****       135.0000 139.2500 104.2500 Du        
  32436 ****       135.0000 139.2500 104.5000 Du        
  32437 ****       135.0000 139.2500 104.7500 Du        
  32438 ****       135.0000 139.2500 105.0000 Du        
  32439 ****       135.0000 141.2500 139.5000 Du        
  32440 ****       135.0000 141.2500 139.7500 Du        
  32441 ****       135.0000 141.2500 140.0000 Du        
  32442 ****       135.0000 142.5000 129.0000 Du        
  32443 ****       135.0000 142.5000 129.2500 Du        
  32444 ****       135.0000 142.5000 129.5000 Du        
  32445 ****       135.0000 142.7500 128.7500 Du        
  32446 ****       135.0000 142.7500 129.0000 Du        
  32447 ****       135.0000 142.7500 129.2500 Du        
  32448 ****       135.0000 142.7500 129.5000 Du        
  32449 ****       135.0000 142.7500 129.7500 Du        
  32450 ****       135.0000 142.7500 130.0000 Du        
  32451 ****       135.0000 143.0000 128.5000 Du        
  32452 ****       135.0000 143.0000 128.7500 Du        
  32453 ****       135.0000 143.0000 129.0000 Du        
  32454 ****       135.0000 143.0000 129.2500 Du        
  32455 ****       135.0000 143.0000 129.5000 Du        
  32456 ****       135.0000 143.0000 129.7500 Du        
  32457 ****       135.0000 143.0000 130.0000 Du        
  32458 ****       135.0000 143.0000 130.2500 Du        
  32459 ****       135.0000 143.2500 128.2500 Du        
  32460 ****       135.0000 143.2500 128.5000 Du        
  32461 ****       135.0000 143.2500 128.7500 Du        
  32462 ****       135.0000 143.2500 129.0000 Du        
  32463 ****       135.0000 143.2500 129.2500 Du        
  32464 ****       135.0000 143.2500 129.5000 Du        
  32465 ****       135.0000 143.2500 129.7500 Du        
  32466 ****       135.0000 143.2500 130.0000 Du        
  32467 ****       135.0000 143.2500 130.2500 Du        
  32468 ****       135.0000 143.2500 130.5000 Du        
  32469 ****       135.0000 143.5000 128.2500 Du        
  32470 ****       135.0000 143.5000 128.5000 Du        
  32471 ****       135.0000 143.5000 128.7500 Du        
  32472 ****       135.0000 143.5000 129.0000 Du        
  32473 ****       135.0000 143.5000 129.2500 Du        
  32474 ****       135.0000 143.5000 129.5000 Du        
  32475 ****       135.0000 143.5000 129.7500 Du        
  32476 ****       135.0000 143.5000 130.0000 Du        
  32477 ****       135.0000 143.5000 130.2500 Du        
  32478 ****       135.0000 143.5000 130.5000 Du        
  32479 ****       135.0000 143.7500 128.0000 Du        
  32480 ****       135.0000 143.7500 128.2500 Du        
  32481 ****       135.0000 143.7500 128.5000 Du        
  32482 ****       135.0000 143.7500 128.7500 Du        
  32483 ****       135.0000 143.7500 129.0000 Du        
  32484 ****       135.0000 143.7500 129.2500 Du        
  32485 ****       135.0000 143.7500 129.5000 Du        
  32486 ****       135.0000 143.7500 129.7500 Du        
  32487 ****       135.0000 143.7500 130.0000 Du        
  32488 ****       135.0000 143.7500 130.2500 Du        
  32489 ****       135.0000 143.7500 130.5000 Du        
  32490 ****       135.0000 143.7500 130.7500 Du        
  32491 ****       135.0000 144.0000 128.0000 Du        
  32492 ****       135.0000 144.0000 128.2500 Du        
  32493 ****       135.0000 144.0000 128.5000 Du        
  32494 ****       135.0000 144.0000 128.7500 Du        
  32495 ****       135.0000 144.0000 129.0000 Du        
  32496 ****       135.0000 144.0000 129.2500 Du        
  32497 ****       135.0000 144.0000 129.5000 Du        
  32498 ****       135.0000 144.0000 129.7500 Du        
  32499 ****       135.0000 144.0000 130.0000 Du        
  32500 ****       135.0000 144.0000 130.2500 Du        
  32501 ****       135.0000 144.2500 129.0000 Du        
  32502 ****       135.0000 147.0000 122.0000 Du        
  32503 ****       135.0000 147.2500 121.0000 Du        
  32504 ****       135.0000 147.2500 121.2500 Du        
  32505 ****       135.0000 147.2500 121.7500 Du        
  32506 ****       135.0000 147.5000 119.5000 Du        
  32507 ****       135.0000 147.5000 119.7500 Du        
  32508 ****       135.0000 147.5000 120.0000 Du        
  32509 ****       135.0000 147.5000 120.2500 Du        
  32510 ****       135.0000 147.5000 120.5000 Du        
  32511 ****       135.0000 147.5000 120.7500 Du        
  32512 ****       135.0000 147.5000 121.0000 Du        
  32513 ****       135.0000 147.5000 121.2500 Du        
  32514 ****       135.0000 147.7500 118.7500 Du        
  32515 ****       135.0000 147.7500 119.0000 Du        
  32516 ****       135.0000 147.7500 119.2500 Du        
  32517 ****       135.0000 147.7500 119.5000 Du        
  32518 ****       135.0000 147.7500 119.7500 Du        
  32519 ****       135.0000 147.7500 120.0000 Du        
  32520 ****       135.0000 147.7500 120.2500 Du        
  32521 ****       135.0000 147.7500 120.5000 Du        
  32522 ****       135.0000 147.7500 120.7500 Du        
  32523 ****       135.0000 147.7500 121.0000 Du        
  32524 ****       135.0000 148.0000 118.5000 Du        
  32525 ****       135.0000 148.0000 118.7500 Du        
  32526 ****       135.0000 148.0000 119.0000 Du        
  32527 ****       135.0000 148.0000 119.2500 Du        
  32528 ****       135.0000 148.0000 119.5000 Du        
  32529 ****       135.0000 148.0000 119.7500 Du        
  32530 ****       135.0000 148.0000 120.0000 Du        
  32531 ****       135.0000 148.0000 120.2500 Du        
  32532 ****       135.0000 148.2500 118.2500 Du        
  32533 ****       135.0000 148.2500 118.5000 Du        
  32534 ****       135.0000 148.2500 118.7500 Du        
  32535 ****       135.0000 148.2500 119.0000 Du        
  32536 ****       135.0000 148.2500 119.2500 Du        
  32537 ****       135.0000 148.2500 119.5000 Du        
  32538 ****       135.0000 148.2500 119.7500 Du        
  32539 ****       135.0000 148.2500 120.0000 Du        
  32540 ****       135.0000 148.2500 120.2500 Du        
  32541 ****       135.0000 148.5000 118.5000 Du        
  32542 ****       135.0000 148.5000 118.7500 Du        
  32543 ****       135.0000 148.5000 119.0000 Du        
  32544 ****       135.0000 148.5000 119.2500 Du        
  32545 ****       135.0000 148.5000 119.5000 Du        
  32546 ****       135.0000 148.5000 119.7500 Du        
  32547 ****       135.0000 148.7500 118.5000 Du        
  32548 ****       135.0000 148.7500 118.7500 Du        
  32549 ****       135.0000 148.7500 119.0000 Du        
  32550 ****       135.0000 153.0000 107.5000 Du        
  32551 ****       135.0000 153.0000 107.7500 Du        
  32552 ****       135.0000 153.0000 108.0000 Du        
  32553 ****       135.0000 153.0000 108.2500 Du        
  32554 ****       135.0000 153.0000 108.5000 Du        
  32555 ****       135.0000 153.0000 108.7500 Du        
  32556 ****       135.0000 153.0000 109.0000 Du        
  32557 ****       135.0000 153.2500 107.5000 Du        
  32558 ****       135.0000 153.2500 107.7500 Du        
  32559 ****       135.0000 153.2500 108.0000 Du        
  32560 ****       135.0000 153.2500 108.2500 Du        
  32561 ****       135.0000 153.2500 108.5000 Du        
  32562 ****       135.0000 153.2500 108.7500 Du        
  32563 ****       135.0000 153.2500 109.0000 Du        
  32564 ****       135.0000 153.2500 109.2500 Du        
  32565 ****       135.0000 153.5000 107.5000 Du        
  32566 ****       135.0000 153.5000 107.7500 Du        
  32567 ****       135.0000 153.5000 108.0000 Du        
  32568 ****       135.0000 153.5000 108.2500 Du        
  32569 ****       135.0000 153.5000 108.5000 Du        
  32570 ****       135.0000 153.5000 108.7500 Du        
  32571 ****       135.0000 153.5000 109.0000 Du        
  32572 ****       135.0000 153.5000 109.2500 Du        
  32573 ****       135.0000 153.7500 107.5000 Du        
  32574 ****       135.0000 153.7500 107.7500 Du        
  32575 ****       135.0000 153.7500 108.0000 Du        
  32576 ****       135.0000 153.7500 108.2500 Du        
  32577 ****       135.0000 153.7500 108.5000 Du        
  32578 ****       135.0000 153.7500 108.7500 Du        
  32579 ****       135.0000 153.7500 109.0000 Du        
  32580 ****       135.0000 153.7500 109.2500 Du        
  32581 ****       135.0000 154.0000 107.5000 Du        
  32582 ****       135.0000 154.0000 107.7500 Du        
  32583 ****       135.0000 154.0000 108.0000 Du        
  32584 ****       135.0000 154.0000 108.2500 Du        
  32585 ****       135.0000 154.0000 108.5000 Du        
  32586 ****       135.0000 154.0000 108.7500 Du        
  32587 ****       135.0000 154.0000 109.0000 Du        
  32588 ****       135.0000 154.0000 109.2500 Du        
  32589 ****       135.0000 154.0000 109.5000 Du        
  32590 ****       135.0000 154.2500 107.5000 Du        
  32591 ****       135.0000 154.2500 107.7500 Du        
  32592 ****       135.0000 154.2500 108.0000 Du        
  32593 ****       135.0000 154.2500 108.2500 Du        
  32594 ****       135.0000 154.2500 108.5000 Du        
  32595 ****       135.0000 154.2500 108.7500 Du        
  32596 ****       135.0000 154.2500 109.0000 Du        
  32597 ****       135.0000 154.2500 109.2500 Du        
  32598 ****       135.0000 154.5000 107.7500 Du        
  32599 ****       135.0000 154.5000 108.0000 Du        
  32600 ****       135.0000 155.0000 107.2500 Du        
  32601 ****       135.0000 155.2500 107.2500 Du        
  32602 ****       135.0000 160.2500 152.5000 Du        
  32603 ****       135.0000 160.5000 152.2500 Du        
  32604 ****       135.0000 160.5000 152.5000 Du        
  32605 ****       135.0000 160.5000 152.7500 Du        
  32606 ****       135.0000 160.5000 153.0000 Du        
  32607 ****       135.0000 160.7500 152.2500 Du        
  32608 ****       135.0000 160.7500 152.5000 Du        
  32609 ****       135.0000 160.7500 152.7500 Du        
  32610 ****       135.0000 160.7500 153.0000 Du        
  32611 ****       135.0000 160.7500 153.2500 Du        
  32612 ****       135.0000 160.7500 153.5000 Du        
  32613 ****       135.0000 160.7500 153.7500 Du        
  32614 ****       135.0000 161.0000 152.2500 Du        
  32615 ****       135.0000 161.0000 152.5000 Du        
  32616 ****       135.0000 161.0000 152.7500 Du        
  32617 ****       135.0000 161.0000 153.0000 Du        
  32618 ****       135.0000 161.0000 153.2500 Du        
  32619 ****       135.0000 161.0000 153.5000 Du        
  32620 ****       135.0000 161.0000 153.7500 Du        
  32621 ****       135.0000 161.2500 152.2500 Du        
  32622 ****       135.0000 161.2500 152.5000 Du        
  32623 ****       135.0000 161.2500 152.7500 Du        
  32624 ****       135.0000 161.2500 153.0000 Du        
  32625 ****       135.0000 161.2500 153.2500 Du        
  32626 ****       135.0000 161.2500 153.5000 Du        
  32627 ****       135.0000 161.2500 153.7500 Du        
  32628 ****       135.0000 161.2500 154.0000 Du        
  32629 ****       135.0000 161.5000 152.2500 Du        
  32630 ****       135.0000 161.5000 152.5000 Du        
  32631 ****       135.0000 161.5000 152.7500 Du        
  32632 ****       135.0000 161.5000 153.0000 Du        
  32633 ****       135.0000 161.5000 153.2500 Du        
  32634 ****       135.0000 161.5000 153.5000 Du        
  32635 ****       135.0000 161.5000 153.7500 Du        
  32636 ****       135.0000 161.5000 154.0000 Du        
  32637 ****       135.0000 161.7500 152.2500 Du        
  32638 ****       135.0000 161.7500 152.5000 Du        
  32639 ****       135.0000 161.7500 152.7500 Du        
  32640 ****       135.0000 161.7500 153.0000 Du        
  32641 ****       135.0000 161.7500 153.2500 Du        
  32642 ****       135.0000 161.7500 153.5000 Du        
  32643 ****       135.0000 161.7500 153.7500 Du        
  32644 ****       135.0000 161.7500 154.0000 Du        
  32645 ****       135.0000 161.7500 154.2500 Du        
  32646 ****       135.0000 162.0000 152.2500 Du        
  32647 ****       135.0000 162.0000 152.5000 Du        
  32648 ****       135.0000 162.0000 152.7500 Du        
  32649 ****       135.0000 162.0000 153.0000 Du        
  32650 ****       135.0000 162.0000 153.2500 Du        
  32651 ****       135.0000 162.0000 153.5000 Du        
  32652 ****       135.0000 162.0000 153.7500 Du        
  32653 ****       135.0000 162.0000 154.0000 Du        
  32654 ****       135.0000 162.0000 154.2500 Du        
  32655 ****       135.0000 162.2500 152.5000 Du        
  32656 ****       135.0000 162.2500 152.7500 Du        
  32657 ****       135.0000 162.2500 153.0000 Du        
  32658 ****       135.0000 162.2500 153.2500 Du        
  32659 ****       135.0000 162.2500 153.5000 Du        
  32660 ****       135.0000 162.2500 153.7500 Du        
  32661 ****       135.0000 162.2500 154.0000 Du        
  32662 ****       135.0000 162.2500 154.2500 Du        
  32663 ****       135.0000 162.5000 153.0000 Du        
  32664 ****       135.0000 162.5000 153.2500 Du        
  32665 ****       135.0000 162.5000 153.5000 Du        
  32666 ****       135.0000 162.5000 153.7500 Du        
  32667 ****       135.0000 162.5000 154.0000 Du        
  32668 ****       135.0000 162.5000 154.2500 Du        
  32669 ****       135.0000 162.5000 154.5000 Du        
  32670 ****       135.0000 162.7500 153.0000 Du        
  32671 ****       135.0000 162.7500 153.2500 Du        
  32672 ****       135.0000 162.7500 153.5000 Du        
  32673 ****       135.0000 162.7500 153.7500 Du        
  32674 ****       135.0000 162.7500 154.0000 Du        
  32675 ****       135.0000 162.7500 154.2500 Du        
  32676 ****       135.0000 162.7500 154.5000 Du        
  32677 ****       135.0000 163.0000 153.0000 Du        
  32678 ****       135.0000 163.0000 153.2500 Du        
  32679 ****       135.0000 163.0000 153.5000 Du        
  32680 ****       135.0000 163.0000 153.7500 Du        
  32681 ****       135.0000 163.0000 154.0000 Du        
  32682 ****       135.0000 163.0000 154.2500 Du        
  32683 ****       135.0000 163.0000 154.5000 Du        
  32684 ****       135.0000 163.2500 153.0000 Du        
  32685 ****       135.0000 163.2500 153.2500 Du        
  32686 ****       135.0000 163.2500 153.5000 Du        
  32687 ****       135.0000 163.2500 153.7500 Du        
  32688 ****       135.0000 163.2500 154.0000 Du        
  32689 ****       135.0000 163.2500 154.2500 Du        
  32690 ****       135.0000 163.2500 154.5000 Du        
  32691 ****       135.0000 163.5000 154.0000 Du        
  32692 ****       135.0000 163.5000 154.2500 Du        
  32693 ****       135.0000 163.7500 154.0000 Du        
  32694 ****       135.0000 163.7500 154.2500 Du        
  32695 ****       135.0000 164.0000 154.0000 Du        
  32696 ****       135.0000 164.0000 154.2500 Du        
  32697 ****       135.2500 121.0000 145.2500 Du        
  32698 ****       135.2500 121.0000 145.5000 Du        
  32699 ****       135.2500 121.0000 145.7500 Du        
  32700 ****       135.2500 121.0000 146.0000 Du        
  32701 ****       135.2500 121.0000 146.2500 Du        
  32702 ****       135.2500 121.0000 146.5000 Du        
  32703 ****       135.2500 121.0000 146.7500 Du        
  32704 ****       135.2500 121.0000 147.0000 Du        
  32705 ****       135.2500 121.0000 147.2500 Du        
  32706 ****       135.2500 121.0000 147.5000 Du        
  32707 ****       135.2500 121.2500 145.0000 Du        
  32708 ****       135.2500 121.2500 145.2500 Du        
  32709 ****       135.2500 121.2500 145.5000 Du        
  32710 ****       135.2500 121.2500 145.7500 Du        
  32711 ****       135.2500 121.2500 146.0000 Du        
  32712 ****       135.2500 121.2500 146.2500 Du        
  32713 ****       135.2500 121.2500 146.5000 Du        
  32714 ****       135.2500 121.2500 146.7500 Du        
  32715 ****       135.2500 121.2500 147.0000 Du        
  32716 ****       135.2500 121.2500 147.2500 Du        
  32717 ****       135.2500 121.2500 147.5000 Du        
  32718 ****       135.2500 121.2500 147.7500 Du        
  32719 ****       135.2500 121.5000 147.0000 Du        
  32720 ****       135.2500 121.5000 147.2500 Du        
  32721 ****       135.2500 121.5000 147.5000 Du        
  32722 ****       135.2500 121.5000 147.7500 Du        
  32723 ****       135.2500 121.5000 148.0000 Du        
  32724 ****       135.2500 121.7500 147.2500 Du        
  32725 ****       135.2500 121.7500 147.5000 Du        
  32726 ****       135.2500 121.7500 147.7500 Du        
  32727 ****       135.2500 121.7500 148.0000 Du        
  32728 ****       135.2500 121.7500 148.2500 Du        
  32729 ****       135.2500 122.0000 147.5000 Du        
  32730 ****       135.2500 122.0000 147.7500 Du        
  32731 ****       135.2500 122.0000 148.0000 Du        
  32732 ****       135.2500 122.0000 148.2500 Du        
  32733 ****       135.2500 122.2500 147.7500 Du        
  32734 ****       135.2500 122.2500 148.0000 Du        
  32735 ****       135.2500 122.2500 148.2500 Du        
  32736 ****       135.2500 122.2500 148.5000 Du        
  32737 ****       135.2500 122.5000 148.2500 Du        
  32738 ****       135.2500 122.5000 148.5000 Du        
  32739 ****       135.2500 126.5000  93.0000 Du        
  32740 ****       135.2500 126.5000  93.2500 Du        
  32741 ****       135.2500 126.5000  93.5000 Du        
  32742 ****       135.2500 126.5000  93.7500 Du        
  32743 ****       135.2500 126.5000  94.0000 Du        
  32744 ****       135.2500 126.5000  94.2500 Du        
  32745 ****       135.2500 126.5000  94.5000 Du        
  32746 ****       135.2500 126.5000  94.7500 Du        
  32747 ****       135.2500 126.5000  95.0000 Du        
  32748 ****       135.2500 126.5000  95.2500 Du        
  32749 ****       135.2500 126.5000  95.5000 Du        
  32750 ****       135.2500 126.5000  95.7500 Du        
  32751 ****       135.2500 126.5000  96.0000 Du        
  32752 ****       135.2500 126.5000  96.7500 Du        
  32753 ****       135.2500 126.7500  93.2500 Du        
  32754 ****       135.2500 126.7500  93.5000 Du        
  32755 ****       135.2500 126.7500  93.7500 Du        
  32756 ****       135.2500 126.7500  94.0000 Du        
  32757 ****       135.2500 126.7500  94.5000 Du        
  32758 ****       135.2500 126.7500  94.7500 Du        
  32759 ****       135.2500 126.7500  95.0000 Du        
  32760 ****       135.2500 126.7500  95.2500 Du        
  32761 ****       135.2500 126.7500  95.5000 Du        
  32762 ****       135.2500 126.7500  95.7500 Du        
  32763 ****       135.2500 126.7500  96.0000 Du        
  32764 ****       135.2500 126.7500  96.7500 Du        
  32765 ****       135.2500 127.0000  95.7500 Du        
  32766 ****       135.2500 127.0000  96.0000 Du        
  32767 ****       135.2500 127.0000  96.7500 Du        
  32768 ****       135.2500 130.0000 151.5000 Du        
  32769 ****       135.2500 130.0000 151.7500 Du        
  32770 ****       135.2500 130.2500 151.2500 Du        
  32771 ****       135.2500 130.2500 151.5000 Du        
  32772 ****       135.2500 130.2500 151.7500 Du        
  32773 ****       135.2500 130.5000 151.5000 Du        
  32774 ****       135.2500 130.7500 151.2500 Du        
  32775 ****       135.2500 130.7500 151.5000 Du        
  32776 ****       135.2500 131.0000 151.2500 Du        
  32777 ****       135.2500 131.0000 151.5000 Du        
  32778 ****       135.2500 132.7500 159.0000 Du        
  32779 ****       135.2500 133.0000 158.5000 Du        
  32780 ****       135.2500 133.0000 158.7500 Du        
  32781 ****       135.2500 133.0000 159.0000 Du        
  32782 ****       135.2500 133.0000 159.2500 Du        
  32783 ****       135.2500 133.2500 158.2500 Du        
  32784 ****       135.2500 133.2500 158.5000 Du        
  32785 ****       135.2500 133.2500 158.7500 Du        
  32786 ****       135.2500 133.2500 159.0000 Du        
  32787 ****       135.2500 133.2500 159.2500 Du        
  32788 ****       135.2500 133.5000 158.0000 Du        
  32789 ****       135.2500 133.5000 158.2500 Du        
  32790 ****       135.2500 133.5000 158.5000 Du        
  32791 ****       135.2500 133.5000 158.7500 Du        
  32792 ****       135.2500 133.5000 159.0000 Du        
  32793 ****       135.2500 133.5000 159.2500 Du        
  32794 ****       135.2500 133.7500 157.7500 Du        
  32795 ****       135.2500 133.7500 158.0000 Du        
  32796 ****       135.2500 133.7500 158.2500 Du        
  32797 ****       135.2500 133.7500 158.5000 Du        
  32798 ****       135.2500 133.7500 158.7500 Du        
  32799 ****       135.2500 133.7500 159.0000 Du        
  32800 ****       135.2500 134.0000 157.7500 Du        
  32801 ****       135.2500 134.0000 158.0000 Du        
  32802 ****       135.2500 134.0000 158.2500 Du        
  32803 ****       135.2500 134.2500 104.0000 Du        
  32804 ****       135.2500 134.2500 104.2500 Du        
  32805 ****       135.2500 134.2500 104.5000 Du        
  32806 ****       135.2500 134.5000 103.7500 Du        
  32807 ****       135.2500 134.5000 104.0000 Du        
  32808 ****       135.2500 134.5000 104.2500 Du        
  32809 ****       135.2500 134.5000 104.5000 Du        
  32810 ****       135.2500 134.5000 104.7500 Du        
  32811 ****       135.2500 134.7500 103.7500 Du        
  32812 ****       135.2500 134.7500 104.0000 Du        
  32813 ****       135.2500 134.7500 104.2500 Du        
  32814 ****       135.2500 134.7500 104.5000 Du        
  32815 ****       135.2500 134.7500 104.7500 Du        
  32816 ****       135.2500 134.7500 105.0000 Du        
  32817 ****       135.2500 135.0000 103.7500 Du        
  32818 ****       135.2500 135.0000 104.0000 Du        
  32819 ****       135.2500 135.0000 104.2500 Du        
  32820 ****       135.2500 135.0000 104.5000 Du        
  32821 ****       135.2500 135.0000 104.7500 Du        
  32822 ****       135.2500 135.0000 105.0000 Du        
  32823 ****       135.2500 135.2500 103.7500 Du        
  32824 ****       135.2500 135.2500 104.0000 Du        
  32825 ****       135.2500 135.2500 104.2500 Du        
  32826 ****       135.2500 135.2500 104.5000 Du        
  32827 ****       135.2500 135.2500 104.7500 Du        
  32828 ****       135.2500 135.2500 105.0000 Du        
  32829 ****       135.2500 135.5000 103.7500 Du        
  32830 ****       135.2500 135.5000 104.0000 Du        
  32831 ****       135.2500 135.5000 104.2500 Du        
  32832 ****       135.2500 135.5000 104.5000 Du        
  32833 ****       135.2500 135.5000 104.7500 Du        
  32834 ****       135.2500 135.7500 103.5000 Du        
  32835 ****       135.2500 135.7500 103.7500 Du        
  32836 ****       135.2500 135.7500 104.0000 Du        
  32837 ****       135.2500 135.7500 104.2500 Du        
  32838 ****       135.2500 135.7500 104.5000 Du        
  32839 ****       135.2500 135.7500 104.7500 Du        
  32840 ****       135.2500 135.7500 105.0000 Du        
  32841 ****       135.2500 136.0000 103.5000 Du        
  32842 ****       135.2500 136.0000 103.7500 Du        
  32843 ****       135.2500 136.0000 104.0000 Du        
  32844 ****       135.2500 136.0000 104.2500 Du        
  32845 ****       135.2500 136.0000 104.5000 Du        
  32846 ****       135.2500 136.0000 104.7500 Du        
  32847 ****       135.2500 136.0000 105.0000 Du        
  32848 ****       135.2500 136.2500 103.5000 Du        
  32849 ****       135.2500 136.2500 103.7500 Du        
  32850 ****       135.2500 136.2500 104.0000 Du        
  32851 ****       135.2500 136.2500 104.2500 Du        
  32852 ****       135.2500 136.2500 104.5000 Du        
  32853 ****       135.2500 136.2500 104.7500 Du        
  32854 ****       135.2500 136.2500 105.0000 Du        
  32855 ****       135.2500 136.5000 103.5000 Du        
  32856 ****       135.2500 136.5000 103.7500 Du        
  32857 ****       135.2500 136.5000 104.0000 Du        
  32858 ****       135.2500 136.5000 104.2500 Du        
  32859 ****       135.2500 136.5000 104.5000 Du        
  32860 ****       135.2500 136.5000 104.7500 Du        
  32861 ****       135.2500 136.5000 105.0000 Du        
  32862 ****       135.2500 136.7500 103.2500 Du        
  32863 ****       135.2500 136.7500 103.5000 Du        
  32864 ****       135.2500 136.7500 103.7500 Du        
  32865 ****       135.2500 136.7500 104.0000 Du        
  32866 ****       135.2500 136.7500 104.2500 Du        
  32867 ****       135.2500 136.7500 104.5000 Du        
  32868 ****       135.2500 136.7500 104.7500 Du        
  32869 ****       135.2500 136.7500 105.0000 Du        
  32870 ****       135.2500 136.7500 105.2500 Du        
  32871 ****       135.2500 136.7500 105.5000 Du        
  32872 ****       135.2500 137.0000  97.0000 Du        
  32873 ****       135.2500 137.0000  97.2500 Du        
  32874 ****       135.2500 137.0000 103.2500 Du        
  32875 ****       135.2500 137.0000 103.5000 Du        
  32876 ****       135.2500 137.0000 103.7500 Du        
  32877 ****       135.2500 137.0000 104.0000 Du        
  32878 ****       135.2500 137.0000 104.2500 Du        
  32879 ****       135.2500 137.0000 104.5000 Du        
  32880 ****       135.2500 137.0000 104.7500 Du        
  32881 ****       135.2500 137.0000 105.0000 Du        
  32882 ****       135.2500 137.0000 105.2500 Du        
  32883 ****       135.2500 137.0000 105.5000 Du        
  32884 ****       135.2500 137.0000 105.7500 Du        
  32885 ****       135.2500 137.0000 106.0000 Du        
  32886 ****       135.2500 137.2500  89.5000 Du        
  32887 ****       135.2500 137.2500  89.7500 Du        
  32888 ****       135.2500 137.2500  97.0000 Du        
  32889 ****       135.2500 137.2500  97.2500 Du        
  32890 ****       135.2500 137.2500 103.2500 Du        
  32891 ****       135.2500 137.2500 103.5000 Du        
  32892 ****       135.2500 137.2500 103.7500 Du        
  32893 ****       135.2500 137.2500 104.0000 Du        
  32894 ****       135.2500 137.2500 104.2500 Du        
  32895 ****       135.2500 137.2500 104.5000 Du        
  32896 ****       135.2500 137.2500 104.7500 Du        
  32897 ****       135.2500 137.2500 105.0000 Du        
  32898 ****       135.2500 137.2500 105.2500 Du        
  32899 ****       135.2500 137.2500 105.5000 Du        
  32900 ****       135.2500 137.2500 105.7500 Du        
  32901 ****       135.2500 137.2500 106.0000 Du        
  32902 ****       135.2500 137.5000  89.7500 Du        
  32903 ****       135.2500 137.5000  97.0000 Du        
  32904 ****       135.2500 137.5000  97.2500 Du        
  32905 ****       135.2500 137.5000 103.0000 Du        
  32906 ****       135.2500 137.5000 103.2500 Du        
  32907 ****       135.2500 137.5000 103.5000 Du        
  32908 ****       135.2500 137.5000 103.7500 Du        
  32909 ****       135.2500 137.5000 104.0000 Du        
  32910 ****       135.2500 137.5000 104.2500 Du        
  32911 ****       135.2500 137.5000 104.5000 Du        
  32912 ****       135.2500 137.5000 104.7500 Du        
  32913 ****       135.2500 137.5000 105.0000 Du        
  32914 ****       135.2500 137.5000 105.2500 Du        
  32915 ****       135.2500 137.5000 105.5000 Du        
  32916 ****       135.2500 137.5000 105.7500 Du        
  32917 ****       135.2500 137.5000 106.0000 Du        
  32918 ****       135.2500 137.7500  97.0000 Du        
  32919 ****       135.2500 137.7500  97.2500 Du        
  32920 ****       135.2500 137.7500 103.0000 Du        
  32921 ****       135.2500 137.7500 103.2500 Du        
  32922 ****       135.2500 137.7500 103.5000 Du        
  32923 ****       135.2500 137.7500 103.7500 Du        
  32924 ****       135.2500 137.7500 104.0000 Du        
  32925 ****       135.2500 137.7500 104.2500 Du        
  32926 ****       135.2500 137.7500 104.5000 Du        
  32927 ****       135.2500 137.7500 104.7500 Du        
  32928 ****       135.2500 137.7500 105.0000 Du        
  32929 ****       135.2500 137.7500 105.2500 Du        
  32930 ****       135.2500 137.7500 105.5000 Du        
  32931 ****       135.2500 137.7500 105.7500 Du        
  32932 ****       135.2500 137.7500 106.0000 Du        
  32933 ****       135.2500 138.0000  97.0000 Du        
  32934 ****       135.2500 138.0000 102.7500 Du        
  32935 ****       135.2500 138.0000 103.0000 Du        
  32936 ****       135.2500 138.0000 103.2500 Du        
  32937 ****       135.2500 138.0000 103.5000 Du        
  32938 ****       135.2500 138.0000 103.7500 Du        
  32939 ****       135.2500 138.0000 104.0000 Du        
  32940 ****       135.2500 138.0000 104.2500 Du        
  32941 ****       135.2500 138.0000 104.5000 Du        
  32942 ****       135.2500 138.0000 104.7500 Du        
  32943 ****       135.2500 138.0000 105.0000 Du        
  32944 ****       135.2500 138.0000 105.2500 Du        
  32945 ****       135.2500 138.0000 105.5000 Du        
  32946 ****       135.2500 138.0000 105.7500 Du        
  32947 ****       135.2500 138.0000 106.0000 Du        
  32948 ****       135.2500 138.2500 102.7500 Du        
  32949 ****       135.2500 138.2500 103.0000 Du        
  32950 ****       135.2500 138.2500 103.2500 Du        
  32951 ****       135.2500 138.2500 103.5000 Du        
  32952 ****       135.2500 138.2500 103.7500 Du        
  32953 ****       135.2500 138.2500 104.0000 Du        
  32954 ****       135.2500 138.2500 104.2500 Du        
  32955 ****       135.2500 138.2500 104.5000 Du        
  32956 ****       135.2500 138.2500 104.7500 Du        
  32957 ****       135.2500 138.2500 105.0000 Du        
  32958 ****       135.2500 138.2500 105.2500 Du        
  32959 ****       135.2500 138.2500 105.5000 Du        
  32960 ****       135.2500 138.2500 105.7500 Du        
  32961 ****       135.2500 138.2500 106.0000 Du        
  32962 ****       135.2500 138.5000 102.7500 Du        
  32963 ****       135.2500 138.5000 103.0000 Du        
  32964 ****       135.2500 138.5000 103.2500 Du        
  32965 ****       135.2500 138.5000 103.5000 Du        
  32966 ****       135.2500 138.5000 103.7500 Du        
  32967 ****       135.2500 138.5000 104.0000 Du        
  32968 ****       135.2500 138.5000 104.2500 Du        
  32969 ****       135.2500 138.5000 104.5000 Du        
  32970 ****       135.2500 138.5000 104.7500 Du        
  32971 ****       135.2500 138.5000 105.0000 Du        
  32972 ****       135.2500 138.5000 105.2500 Du        
  32973 ****       135.2500 138.5000 105.5000 Du        
  32974 ****       135.2500 138.5000 105.7500 Du        
  32975 ****       135.2500 138.5000 106.0000 Du        
  32976 ****       135.2500 138.7500 102.7500 Du        
  32977 ****       135.2500 138.7500 103.0000 Du        
  32978 ****       135.2500 138.7500 103.2500 Du        
  32979 ****       135.2500 138.7500 103.5000 Du        
  32980 ****       135.2500 138.7500 103.7500 Du        
  32981 ****       135.2500 138.7500 104.0000 Du        
  32982 ****       135.2500 138.7500 104.2500 Du        
  32983 ****       135.2500 138.7500 104.5000 Du        
  32984 ****       135.2500 138.7500 104.7500 Du        
  32985 ****       135.2500 138.7500 105.0000 Du        
  32986 ****       135.2500 138.7500 105.2500 Du        
  32987 ****       135.2500 138.7500 105.5000 Du        
  32988 ****       135.2500 138.7500 105.7500 Du        
  32989 ****       135.2500 139.0000 102.7500 Du        
  32990 ****       135.2500 139.0000 103.0000 Du        
  32991 ****       135.2500 139.0000 103.2500 Du        
  32992 ****       135.2500 139.0000 103.5000 Du        
  32993 ****       135.2500 139.0000 103.7500 Du        
  32994 ****       135.2500 139.0000 104.0000 Du        
  32995 ****       135.2500 139.0000 104.2500 Du        
  32996 ****       135.2500 139.0000 104.5000 Du        
  32997 ****       135.2500 139.0000 104.7500 Du        
  32998 ****       135.2500 139.0000 105.0000 Du        
  32999 ****       135.2500 139.0000 105.2500 Du        
  33000 ****       135.2500 139.0000 105.5000 Du        
  33001 ****       135.2500 139.2500 104.7500 Du        
  33002 ****       135.2500 139.2500 105.0000 Du        
  33003 ****       135.2500 141.0000 139.7500 Du        
  33004 ****       135.2500 141.0000 140.0000 Du        
  33005 ****       135.2500 141.2500 139.5000 Du        
  33006 ****       135.2500 141.2500 139.7500 Du        
  33007 ****       135.2500 141.2500 140.0000 Du        
  33008 ****       135.2500 142.7500 129.2500 Du        
  33009 ****       135.2500 142.7500 129.5000 Du        
  33010 ****       135.2500 142.7500 129.7500 Du        
  33011 ****       135.2500 143.0000 129.0000 Du        
  33012 ****       135.2500 143.0000 129.2500 Du        
  33013 ****       135.2500 143.0000 129.5000 Du        
  33014 ****       135.2500 143.0000 129.7500 Du        
  33015 ****       135.2500 143.0000 130.0000 Du        
  33016 ****       135.2500 143.0000 130.2500 Du        
  33017 ****       135.2500 143.2500 128.7500 Du        
  33018 ****       135.2500 143.2500 129.0000 Du        
  33019 ****       135.2500 143.2500 129.2500 Du        
  33020 ****       135.2500 143.2500 129.5000 Du        
  33021 ****       135.2500 143.2500 129.7500 Du        
  33022 ****       135.2500 143.2500 130.0000 Du        
  33023 ****       135.2500 143.2500 130.2500 Du        
  33024 ****       135.2500 143.2500 130.5000 Du        
  33025 ****       135.2500 143.5000 128.7500 Du        
  33026 ****       135.2500 143.5000 129.0000 Du        
  33027 ****       135.2500 143.5000 129.2500 Du        
  33028 ****       135.2500 143.5000 129.5000 Du        
  33029 ****       135.2500 143.5000 129.7500 Du        
  33030 ****       135.2500 143.5000 130.0000 Du        
  33031 ****       135.2500 143.5000 130.2500 Du        
  33032 ****       135.2500 143.5000 130.5000 Du        
  33033 ****       135.2500 143.7500 128.5000 Du        
  33034 ****       135.2500 143.7500 128.7500 Du        
  33035 ****       135.2500 143.7500 129.0000 Du        
  33036 ****       135.2500 143.7500 129.2500 Du        
  33037 ****       135.2500 143.7500 129.5000 Du        
  33038 ****       135.2500 143.7500 129.7500 Du        
  33039 ****       135.2500 143.7500 130.0000 Du        
  33040 ****       135.2500 143.7500 130.2500 Du        
  33041 ****       135.2500 143.7500 130.5000 Du        
  33042 ****       135.2500 143.7500 130.7500 Du        
  33043 ****       135.2500 144.0000 128.7500 Du        
  33044 ****       135.2500 144.0000 129.0000 Du        
  33045 ****       135.2500 144.0000 129.2500 Du        
  33046 ****       135.2500 144.0000 129.5000 Du        
  33047 ****       135.2500 144.0000 129.7500 Du        
  33048 ****       135.2500 144.0000 130.0000 Du        
  33049 ****       135.2500 144.0000 130.2500 Du        
  33050 ****       135.2500 147.2500 122.0000 Du        
  33051 ****       135.2500 147.5000 119.7500 Du        
  33052 ****       135.2500 147.5000 120.0000 Du        
  33053 ****       135.2500 147.5000 120.2500 Du        
  33054 ****       135.2500 147.5000 120.7500 Du        
  33055 ****       135.2500 147.5000 121.0000 Du        
  33056 ****       135.2500 147.7500 118.7500 Du        
  33057 ****       135.2500 147.7500 119.0000 Du        
  33058 ****       135.2500 147.7500 119.2500 Du        
  33059 ****       135.2500 147.7500 119.5000 Du        
  33060 ****       135.2500 147.7500 119.7500 Du        
  33061 ****       135.2500 147.7500 120.0000 Du        
  33062 ****       135.2500 147.7500 120.2500 Du        
  33063 ****       135.2500 147.7500 120.5000 Du        
  33064 ****       135.2500 147.7500 120.7500 Du        
  33065 ****       135.2500 147.7500 121.0000 Du        
  33066 ****       135.2500 148.0000 118.5000 Du        
  33067 ****       135.2500 148.0000 118.7500 Du        
  33068 ****       135.2500 148.0000 119.0000 Du        
  33069 ****       135.2500 148.0000 119.2500 Du        
  33070 ****       135.2500 148.0000 119.5000 Du        
  33071 ****       135.2500 148.0000 119.7500 Du        
  33072 ****       135.2500 148.0000 120.0000 Du        
  33073 ****       135.2500 148.0000 120.2500 Du        
  33074 ****       135.2500 148.0000 120.5000 Du        
  33075 ****       135.2500 148.2500 118.2500 Du        
  33076 ****       135.2500 148.2500 118.5000 Du        
  33077 ****       135.2500 148.2500 118.7500 Du        
  33078 ****       135.2500 148.2500 119.0000 Du        
  33079 ****       135.2500 148.2500 119.2500 Du        
  33080 ****       135.2500 148.2500 119.5000 Du        
  33081 ****       135.2500 148.2500 119.7500 Du        
  33082 ****       135.2500 148.2500 120.0000 Du        
  33083 ****       135.2500 148.2500 120.2500 Du        
  33084 ****       135.2500 148.5000 118.2500 Du        
  33085 ****       135.2500 148.5000 118.5000 Du        
  33086 ****       135.2500 148.5000 118.7500 Du        
  33087 ****       135.2500 148.5000 119.0000 Du        
  33088 ****       135.2500 148.5000 119.2500 Du        
  33089 ****       135.2500 148.5000 119.5000 Du        
  33090 ****       135.2500 148.5000 119.7500 Du        
  33091 ****       135.2500 148.7500 118.2500 Du        
  33092 ****       135.2500 148.7500 118.5000 Du        
  33093 ****       135.2500 148.7500 118.7500 Du        
  33094 ****       135.2500 148.7500 119.0000 Du        
  33095 ****       135.2500 153.0000 107.5000 Du        
  33096 ****       135.2500 153.0000 107.7500 Du        
  33097 ****       135.2500 153.0000 108.0000 Du        
  33098 ****       135.2500 153.0000 108.2500 Du        
  33099 ****       135.2500 153.0000 108.5000 Du        
  33100 ****       135.2500 153.0000 108.7500 Du        
  33101 ****       135.2500 153.2500 107.5000 Du        
  33102 ****       135.2500 153.2500 107.7500 Du        
  33103 ****       135.2500 153.2500 108.0000 Du        
  33104 ****       135.2500 153.2500 108.2500 Du        
  33105 ****       135.2500 153.2500 108.5000 Du        
  33106 ****       135.2500 153.2500 108.7500 Du        
  33107 ****       135.2500 153.2500 109.0000 Du        
  33108 ****       135.2500 153.2500 109.2500 Du        
  33109 ****       135.2500 153.5000 107.5000 Du        
  33110 ****       135.2500 153.5000 107.7500 Du        
  33111 ****       135.2500 153.5000 108.0000 Du        
  33112 ****       135.2500 153.5000 108.2500 Du        
  33113 ****       135.2500 153.5000 108.5000 Du        
  33114 ****       135.2500 153.5000 108.7500 Du        
  33115 ****       135.2500 153.5000 109.0000 Du        
  33116 ****       135.2500 153.5000 109.2500 Du        
  33117 ****       135.2500 153.7500 107.5000 Du        
  33118 ****       135.2500 153.7500 107.7500 Du        
  33119 ****       135.2500 153.7500 108.0000 Du        
  33120 ****       135.2500 153.7500 108.2500 Du        
  33121 ****       135.2500 153.7500 108.5000 Du        
  33122 ****       135.2500 153.7500 108.7500 Du        
  33123 ****       135.2500 153.7500 109.0000 Du        
  33124 ****       135.2500 153.7500 109.2500 Du        
  33125 ****       135.2500 154.0000 107.5000 Du        
  33126 ****       135.2500 154.0000 107.7500 Du        
  33127 ****       135.2500 154.0000 108.0000 Du        
  33128 ****       135.2500 154.0000 108.2500 Du        
  33129 ****       135.2500 154.0000 108.5000 Du        
  33130 ****       135.2500 154.0000 108.7500 Du        
  33131 ****       135.2500 154.0000 109.0000 Du        
  33132 ****       135.2500 154.0000 109.2500 Du        
  33133 ****       135.2500 154.2500 107.5000 Du        
  33134 ****       135.2500 154.2500 107.7500 Du        
  33135 ****       135.2500 154.2500 108.0000 Du        
  33136 ****       135.2500 154.2500 108.2500 Du        
  33137 ****       135.2500 154.2500 108.5000 Du        
  33138 ****       135.2500 154.2500 108.7500 Du        
  33139 ****       135.2500 154.2500 109.0000 Du        
  33140 ****       135.2500 160.5000 152.5000 Du        
  33141 ****       135.2500 160.5000 152.7500 Du        
  33142 ****       135.2500 160.5000 153.0000 Du        
  33143 ****       135.2500 160.5000 153.2500 Du        
  33144 ****       135.2500 160.7500 152.2500 Du        
  33145 ****       135.2500 160.7500 152.5000 Du        
  33146 ****       135.2500 160.7500 152.7500 Du        
  33147 ****       135.2500 160.7500 153.0000 Du        
  33148 ****       135.2500 160.7500 153.2500 Du        
  33149 ****       135.2500 160.7500 153.5000 Du        
  33150 ****       135.2500 160.7500 153.7500 Du        
  33151 ****       135.2500 161.0000 152.2500 Du        
  33152 ****       135.2500 161.0000 152.5000 Du        
  33153 ****       135.2500 161.0000 152.7500 Du        
  33154 ****       135.2500 161.0000 153.0000 Du        
  33155 ****       135.2500 161.0000 153.2500 Du        
  33156 ****       135.2500 161.0000 153.5000 Du        
  33157 ****       135.2500 161.0000 153.7500 Du        
  33158 ****       135.2500 161.0000 154.0000 Du        
  33159 ****       135.2500 161.2500 152.2500 Du        
  33160 ****       135.2500 161.2500 152.5000 Du        
  33161 ****       135.2500 161.2500 152.7500 Du        
  33162 ****       135.2500 161.2500 153.0000 Du        
  33163 ****       135.2500 161.2500 153.2500 Du        
  33164 ****       135.2500 161.2500 153.5000 Du        
  33165 ****       135.2500 161.2500 153.7500 Du        
  33166 ****       135.2500 161.2500 154.0000 Du        
  33167 ****       135.2500 161.5000 152.2500 Du        
  33168 ****       135.2500 161.5000 152.5000 Du        
  33169 ****       135.2500 161.5000 152.7500 Du        
  33170 ****       135.2500 161.5000 153.0000 Du        
  33171 ****       135.2500 161.5000 153.2500 Du        
  33172 ****       135.2500 161.5000 153.5000 Du        
  33173 ****       135.2500 161.5000 153.7500 Du        
  33174 ****       135.2500 161.5000 154.0000 Du        
  33175 ****       135.2500 161.7500 152.5000 Du        
  33176 ****       135.2500 161.7500 152.7500 Du        
  33177 ****       135.2500 161.7500 153.0000 Du        
  33178 ****       135.2500 161.7500 153.2500 Du        
  33179 ****       135.2500 161.7500 153.5000 Du        
  33180 ****       135.2500 161.7500 153.7500 Du        
  33181 ****       135.2500 161.7500 154.0000 Du        
  33182 ****       135.2500 161.7500 154.2500 Du        
  33183 ****       135.2500 162.0000 152.5000 Du        
  33184 ****       135.2500 162.0000 152.7500 Du        
  33185 ****       135.2500 162.0000 153.0000 Du        
  33186 ****       135.2500 162.0000 153.2500 Du        
  33187 ****       135.2500 162.0000 153.5000 Du        
  33188 ****       135.2500 162.0000 153.7500 Du        
  33189 ****       135.2500 162.0000 154.0000 Du        
  33190 ****       135.2500 162.0000 154.2500 Du        
  33191 ****       135.2500 162.2500 152.5000 Du        
  33192 ****       135.2500 162.2500 152.7500 Du        
  33193 ****       135.2500 162.2500 153.0000 Du        
  33194 ****       135.2500 162.2500 153.2500 Du        
  33195 ****       135.2500 162.2500 153.5000 Du        
  33196 ****       135.2500 162.2500 153.7500 Du        
  33197 ****       135.2500 162.2500 154.0000 Du        
  33198 ****       135.2500 162.2500 154.2500 Du        
  33199 ****       135.2500 162.2500 154.5000 Du        
  33200 ****       135.2500 162.5000 152.7500 Du        
  33201 ****       135.2500 162.5000 153.0000 Du        
  33202 ****       135.2500 162.5000 153.2500 Du        
  33203 ****       135.2500 162.5000 153.5000 Du        
  33204 ****       135.2500 162.5000 153.7500 Du        
  33205 ****       135.2500 162.5000 154.0000 Du        
  33206 ****       135.2500 162.5000 154.2500 Du        
  33207 ****       135.2500 162.5000 154.5000 Du        
  33208 ****       135.2500 162.7500 152.7500 Du        
  33209 ****       135.2500 162.7500 153.0000 Du        
  33210 ****       135.2500 162.7500 153.2500 Du        
  33211 ****       135.2500 162.7500 153.5000 Du        
  33212 ****       135.2500 162.7500 153.7500 Du        
  33213 ****       135.2500 162.7500 154.0000 Du        
  33214 ****       135.2500 162.7500 154.2500 Du        
  33215 ****       135.2500 162.7500 154.5000 Du        
  33216 ****       135.2500 163.0000 153.0000 Du        
  33217 ****       135.2500 163.0000 153.2500 Du        
  33218 ****       135.2500 163.0000 153.5000 Du        
  33219 ****       135.2500 163.0000 153.7500 Du        
  33220 ****       135.2500 163.0000 154.0000 Du        
  33221 ****       135.2500 163.0000 154.2500 Du        
  33222 ****       135.2500 163.0000 154.5000 Du        
  33223 ****       135.2500 163.2500 153.0000 Du        
  33224 ****       135.2500 163.2500 153.2500 Du        
  33225 ****       135.2500 163.2500 153.5000 Du        
  33226 ****       135.2500 163.2500 153.7500 Du        
  33227 ****       135.2500 163.2500 154.0000 Du        
  33228 ****       135.2500 163.2500 154.2500 Du        
  33229 ****       135.2500 163.5000 153.7500 Du        
  33230 ****       135.2500 163.5000 154.0000 Du        
  33231 ****       135.2500 163.5000 154.2500 Du        
  33232 ****       135.2500 163.7500 154.0000 Du        
  33233 ****       135.2500 163.7500 154.2500 Du        
  33234 ****       135.2500 164.0000 154.2500 Du        
  33235 ****       135.5000 121.7500 147.7500 Du        
  33236 ****       135.5000 121.7500 148.0000 Du        
  33237 ****       135.5000 122.0000 147.7500 Du        
  33238 ****       135.5000 122.0000 148.0000 Du        
  33239 ****       135.5000 122.0000 148.2500 Du        
  33240 ****       135.5000 122.2500 148.0000 Du        
  33241 ****       135.5000 122.2500 148.2500 Du        
  33242 ****       135.5000 122.2500 148.5000 Du        
  33243 ****       135.5000 122.5000 148.2500 Du        
  33244 ****       135.5000 122.5000 148.5000 Du        
  33245 ****       135.5000 126.5000  94.5000 Du        
  33246 ****       135.5000 126.5000  94.7500 Du        
  33247 ****       135.5000 126.5000  95.0000 Du        
  33248 ****       135.5000 126.5000  95.2500 Du        
  33249 ****       135.5000 126.5000  96.0000 Du        
  33250 ****       135.5000 126.5000  96.7500 Du        
  33251 ****       135.5000 126.5000  97.0000 Du        
  33252 ****       135.5000 126.7500  94.7500 Du        
  33253 ****       135.5000 126.7500  95.0000 Du        
  33254 ****       135.5000 126.7500  95.2500 Du        
  33255 ****       135.5000 126.7500  95.5000 Du        
  33256 ****       135.5000 126.7500  95.7500 Du        
  33257 ****       135.5000 126.7500  96.0000 Du        
  33258 ****       135.5000 126.7500  96.7500 Du        
  33259 ****       135.5000 126.7500  97.0000 Du        
  33260 ****       135.5000 127.0000  95.7500 Du        
  33261 ****       135.5000 127.0000  96.0000 Du        
  33262 ****       135.5000 127.0000  96.7500 Du        
  33263 ****       135.5000 127.0000  97.0000 Du        
  33264 ****       135.5000 127.2500  96.7500 Du        
  33265 ****       135.5000 129.7500 151.2500 Du        
  33266 ****       135.5000 129.7500 151.5000 Du        
  33267 ****       135.5000 129.7500 151.7500 Du        
  33268 ****       135.5000 130.0000 151.0000 Du        
  33269 ****       135.5000 130.0000 151.2500 Du        
  33270 ****       135.5000 130.0000 151.5000 Du        
  33271 ****       135.5000 130.0000 151.7500 Du        
  33272 ****       135.5000 130.2500 151.0000 Du        
  33273 ****       135.5000 130.2500 151.2500 Du        
  33274 ****       135.5000 130.2500 151.5000 Du        
  33275 ****       135.5000 130.2500 151.7500 Du        
  33276 ****       135.5000 130.5000 151.2500 Du        
  33277 ****       135.5000 130.5000 151.5000 Du        
  33278 ****       135.5000 130.7500 151.2500 Du        
  33279 ****       135.5000 130.7500 151.5000 Du        
  33280 ****       135.5000 131.0000 151.5000 Du        
  33281 ****       135.5000 133.0000 158.7500 Du        
  33282 ****       135.5000 133.0000 159.0000 Du        
  33283 ****       135.5000 133.2500 158.5000 Du        
  33284 ****       135.5000 133.2500 158.7500 Du        
  33285 ****       135.5000 133.2500 159.0000 Du        
  33286 ****       135.5000 133.5000 158.0000 Du        
  33287 ****       135.5000 133.5000 158.2500 Du        
  33288 ****       135.5000 133.5000 158.5000 Du        
  33289 ****       135.5000 133.5000 158.7500 Du        
  33290 ****       135.5000 133.5000 159.0000 Du        
  33291 ****       135.5000 133.5000 159.2500 Du        
  33292 ****       135.5000 133.7500 158.0000 Du        
  33293 ****       135.5000 133.7500 158.2500 Du        
  33294 ****       135.5000 133.7500 158.5000 Du        
  33295 ****       135.5000 133.7500 158.7500 Du        
  33296 ****       135.5000 133.7500 159.0000 Du        
  33297 ****       135.5000 134.0000 158.0000 Du        
  33298 ****       135.5000 134.0000 158.2500 Du        
  33299 ****       135.5000 134.2500 103.7500 Du        
  33300 ****       135.5000 134.2500 104.0000 Du        
  33301 ****       135.5000 134.2500 104.2500 Du        
  33302 ****       135.5000 134.2500 104.5000 Du        
  33303 ****       135.5000 134.5000 103.7500 Du        
  33304 ****       135.5000 134.5000 104.0000 Du        
  33305 ****       135.5000 134.5000 104.2500 Du        
  33306 ****       135.5000 134.5000 104.5000 Du        
  33307 ****       135.5000 134.5000 104.7500 Du        
  33308 ****       135.5000 134.7500 103.7500 Du        
  33309 ****       135.5000 134.7500 104.0000 Du        
  33310 ****       135.5000 134.7500 104.2500 Du        
  33311 ****       135.5000 134.7500 104.5000 Du        
  33312 ****       135.5000 134.7500 104.7500 Du        
  33313 ****       135.5000 134.7500 105.0000 Du        
  33314 ****       135.5000 135.0000 103.5000 Du        
  33315 ****       135.5000 135.0000 103.7500 Du        
  33316 ****       135.5000 135.0000 104.0000 Du        
  33317 ****       135.5000 135.0000 104.2500 Du        
  33318 ****       135.5000 135.0000 104.5000 Du        
  33319 ****       135.5000 135.0000 104.7500 Du        
  33320 ****       135.5000 135.0000 105.0000 Du        
  33321 ****       135.5000 135.0000 105.2500 Du        
  33322 ****       135.5000 135.2500 103.5000 Du        
  33323 ****       135.5000 135.2500 103.7500 Du        
  33324 ****       135.5000 135.2500 104.0000 Du        
  33325 ****       135.5000 135.2500 104.2500 Du        
  33326 ****       135.5000 135.2500 104.5000 Du        
  33327 ****       135.5000 135.2500 104.7500 Du        
  33328 ****       135.5000 135.2500 105.0000 Du        
  33329 ****       135.5000 135.2500 105.2500 Du        
  33330 ****       135.5000 135.5000 103.5000 Du        
  33331 ****       135.5000 135.5000 103.7500 Du        
  33332 ****       135.5000 135.5000 104.0000 Du        
  33333 ****       135.5000 135.5000 104.2500 Du        
  33334 ****       135.5000 135.5000 104.5000 Du        
  33335 ****       135.5000 135.5000 104.7500 Du        
  33336 ****       135.5000 135.5000 105.0000 Du        
  33337 ****       135.5000 135.5000 105.2500 Du        
  33338 ****       135.5000 135.7500 103.5000 Du        
  33339 ****       135.5000 135.7500 103.7500 Du        
  33340 ****       135.5000 135.7500 104.0000 Du        
  33341 ****       135.5000 135.7500 104.2500 Du        
  33342 ****       135.5000 135.7500 104.5000 Du        
  33343 ****       135.5000 135.7500 104.7500 Du        
  33344 ****       135.5000 135.7500 105.0000 Du        
  33345 ****       135.5000 135.7500 105.2500 Du        
  33346 ****       135.5000 136.0000 103.5000 Du        
  33347 ****       135.5000 136.0000 103.7500 Du        
  33348 ****       135.5000 136.0000 104.0000 Du        
  33349 ****       135.5000 136.0000 104.2500 Du        
  33350 ****       135.5000 136.0000 104.5000 Du        
  33351 ****       135.5000 136.0000 104.7500 Du        
  33352 ****       135.5000 136.0000 105.0000 Du        
  33353 ****       135.5000 136.0000 105.2500 Du        
  33354 ****       135.5000 136.2500 103.5000 Du        
  33355 ****       135.5000 136.2500 103.7500 Du        
  33356 ****       135.5000 136.2500 104.0000 Du        
  33357 ****       135.5000 136.2500 104.2500 Du        
  33358 ****       135.5000 136.2500 104.5000 Du        
  33359 ****       135.5000 136.2500 104.7500 Du        
  33360 ****       135.5000 136.2500 105.0000 Du        
  33361 ****       135.5000 136.5000 103.5000 Du        
  33362 ****       135.5000 136.5000 103.7500 Du        
  33363 ****       135.5000 136.5000 104.0000 Du        
  33364 ****       135.5000 136.5000 104.2500 Du        
  33365 ****       135.5000 136.5000 104.5000 Du        
  33366 ****       135.5000 136.5000 104.7500 Du        
  33367 ****       135.5000 136.5000 105.0000 Du        
  33368 ****       135.5000 136.7500 103.5000 Du        
  33369 ****       135.5000 136.7500 103.7500 Du        
  33370 ****       135.5000 136.7500 104.0000 Du        
  33371 ****       135.5000 136.7500 104.2500 Du        
  33372 ****       135.5000 136.7500 104.5000 Du        
  33373 ****       135.5000 136.7500 104.7500 Du        
  33374 ****       135.5000 137.0000 103.2500 Du        
  33375 ****       135.5000 137.0000 103.5000 Du        
  33376 ****       135.5000 137.0000 103.7500 Du        
  33377 ****       135.5000 137.0000 104.0000 Du        
  33378 ****       135.5000 137.0000 104.2500 Du        
  33379 ****       135.5000 137.0000 104.5000 Du        
  33380 ****       135.5000 137.0000 104.7500 Du        
  33381 ****       135.5000 137.0000 105.0000 Du        
  33382 ****       135.5000 137.2500  89.5000 Du        
  33383 ****       135.5000 137.2500  97.2500 Du        
  33384 ****       135.5000 137.2500 103.2500 Du        
  33385 ****       135.5000 137.2500 103.5000 Du        
  33386 ****       135.5000 137.2500 103.7500 Du        
  33387 ****       135.5000 137.2500 104.0000 Du        
  33388 ****       135.5000 137.2500 104.2500 Du        
  33389 ****       135.5000 137.2500 104.5000 Du        
  33390 ****       135.5000 137.2500 104.7500 Du        
  33391 ****       135.5000 137.2500 105.0000 Du        
  33392 ****       135.5000 137.5000 103.2500 Du        
  33393 ****       135.5000 137.5000 103.5000 Du        
  33394 ****       135.5000 137.5000 103.7500 Du        
  33395 ****       135.5000 137.5000 104.0000 Du        
  33396 ****       135.5000 137.5000 104.2500 Du        
  33397 ****       135.5000 137.5000 104.5000 Du        
  33398 ****       135.5000 137.5000 104.7500 Du        
  33399 ****       135.5000 137.5000 105.0000 Du        
  33400 ****       135.5000 137.5000 105.2500 Du        
  33401 ****       135.5000 137.7500 103.0000 Du        
  33402 ****       135.5000 137.7500 103.2500 Du        
  33403 ****       135.5000 137.7500 103.5000 Du        
  33404 ****       135.5000 137.7500 103.7500 Du        
  33405 ****       135.5000 137.7500 104.0000 Du        
  33406 ****       135.5000 137.7500 104.2500 Du        
  33407 ****       135.5000 137.7500 104.5000 Du        
  33408 ****       135.5000 137.7500 104.7500 Du        
  33409 ****       135.5000 137.7500 105.0000 Du        
  33410 ****       135.5000 137.7500 105.2500 Du        
  33411 ****       135.5000 137.7500 105.5000 Du        
  33412 ****       135.5000 137.7500 105.7500 Du        
  33413 ****       135.5000 138.0000 103.0000 Du        
  33414 ****       135.5000 138.0000 103.2500 Du        
  33415 ****       135.5000 138.0000 103.5000 Du        
  33416 ****       135.5000 138.0000 103.7500 Du        
  33417 ****       135.5000 138.0000 104.0000 Du        
  33418 ****       135.5000 138.0000 104.2500 Du        
  33419 ****       135.5000 138.0000 104.5000 Du        
  33420 ****       135.5000 138.0000 104.7500 Du        
  33421 ****       135.5000 138.0000 105.0000 Du        
  33422 ****       135.5000 138.0000 105.2500 Du        
  33423 ****       135.5000 138.0000 105.5000 Du        
  33424 ****       135.5000 138.0000 105.7500 Du        
  33425 ****       135.5000 138.2500 103.0000 Du        
  33426 ****       135.5000 138.2500 103.2500 Du        
  33427 ****       135.5000 138.2500 103.5000 Du        
  33428 ****       135.5000 138.2500 103.7500 Du        
  33429 ****       135.5000 138.2500 104.0000 Du        
  33430 ****       135.5000 138.2500 104.2500 Du        
  33431 ****       135.5000 138.2500 104.5000 Du        
  33432 ****       135.5000 138.2500 104.7500 Du        
  33433 ****       135.5000 138.2500 105.0000 Du        
  33434 ****       135.5000 138.2500 105.2500 Du        
  33435 ****       135.5000 138.2500 105.5000 Du        
  33436 ****       135.5000 138.2500 105.7500 Du        
  33437 ****       135.5000 138.5000 103.0000 Du        
  33438 ****       135.5000 138.5000 103.2500 Du        
  33439 ****       135.5000 138.5000 103.5000 Du        
  33440 ****       135.5000 138.5000 103.7500 Du        
  33441 ****       135.5000 138.5000 104.0000 Du        
  33442 ****       135.5000 138.5000 104.2500 Du        
  33443 ****       135.5000 138.5000 104.5000 Du        
  33444 ****       135.5000 138.5000 104.7500 Du        
  33445 ****       135.5000 138.5000 105.0000 Du        
  33446 ****       135.5000 138.5000 105.2500 Du        
  33447 ****       135.5000 138.5000 105.5000 Du        
  33448 ****       135.5000 138.5000 105.7500 Du        
  33449 ****       135.5000 138.7500 102.7500 Du        
  33450 ****       135.5000 138.7500 103.0000 Du        
  33451 ****       135.5000 138.7500 103.2500 Du        
  33452 ****       135.5000 138.7500 103.5000 Du        
  33453 ****       135.5000 138.7500 103.7500 Du        
  33454 ****       135.5000 138.7500 104.0000 Du        
  33455 ****       135.5000 138.7500 104.2500 Du        
  33456 ****       135.5000 138.7500 104.5000 Du        
  33457 ****       135.5000 138.7500 104.7500 Du        
  33458 ****       135.5000 138.7500 105.0000 Du        
  33459 ****       135.5000 138.7500 105.2500 Du        
  33460 ****       135.5000 138.7500 105.5000 Du        
  33461 ****       135.5000 138.7500 105.7500 Du        
  33462 ****       135.5000 139.0000 102.7500 Du        
  33463 ****       135.5000 139.0000 103.0000 Du        
  33464 ****       135.5000 139.0000 103.2500 Du        
  33465 ****       135.5000 139.0000 103.5000 Du        
  33466 ****       135.5000 139.0000 103.7500 Du        
  33467 ****       135.5000 139.0000 104.0000 Du        
  33468 ****       135.5000 139.0000 104.2500 Du        
  33469 ****       135.5000 139.0000 104.5000 Du        
  33470 ****       135.5000 139.0000 104.7500 Du        
  33471 ****       135.5000 139.0000 105.0000 Du        
  33472 ****       135.5000 139.0000 105.2500 Du        
  33473 ****       135.5000 139.0000 105.5000 Du        
  33474 ****       135.5000 141.0000 139.7500 Du        
  33475 ****       135.5000 141.0000 140.0000 Du        
  33476 ****       135.5000 141.2500 139.5000 Du        
  33477 ****       135.5000 141.2500 139.7500 Du        
  33478 ****       135.5000 141.2500 140.0000 Du        
  33479 ****       135.5000 143.0000 129.2500 Du        
  33480 ****       135.5000 143.0000 129.5000 Du        
  33481 ****       135.5000 143.0000 129.7500 Du        
  33482 ****       135.5000 143.0000 130.0000 Du        
  33483 ****       135.5000 143.2500 129.0000 Du        
  33484 ****       135.5000 143.2500 129.2500 Du        
  33485 ****       135.5000 143.2500 129.5000 Du        
  33486 ****       135.5000 143.2500 129.7500 Du        
  33487 ****       135.5000 143.2500 130.0000 Du        
  33488 ****       135.5000 143.2500 130.2500 Du        
  33489 ****       135.5000 143.5000 129.0000 Du        
  33490 ****       135.5000 143.5000 129.2500 Du        
  33491 ****       135.5000 143.5000 129.5000 Du        
  33492 ****       135.5000 143.5000 129.7500 Du        
  33493 ****       135.5000 143.5000 130.0000 Du        
  33494 ****       135.5000 143.5000 130.2500 Du        
  33495 ****       135.5000 143.5000 130.5000 Du        
  33496 ****       135.5000 143.7500 129.0000 Du        
  33497 ****       135.5000 143.7500 129.2500 Du        
  33498 ****       135.5000 143.7500 129.5000 Du        
  33499 ****       135.5000 143.7500 129.7500 Du        
  33500 ****       135.5000 143.7500 130.0000 Du        
  33501 ****       135.5000 143.7500 130.2500 Du        
  33502 ****       135.5000 143.7500 130.5000 Du        
  33503 ****       135.5000 144.0000 129.0000 Du        
  33504 ****       135.5000 144.0000 129.2500 Du        
  33505 ****       135.5000 144.0000 129.7500 Du        
  33506 ****       135.5000 144.0000 130.0000 Du        
  33507 ****       135.5000 144.0000 130.2500 Du        
  33508 ****       135.5000 147.5000 120.0000 Du        
  33509 ****       135.5000 147.5000 120.2500 Du        
  33510 ****       135.5000 147.7500 119.0000 Du        
  33511 ****       135.5000 147.7500 119.2500 Du        
  33512 ****       135.5000 147.7500 119.5000 Du        
  33513 ****       135.5000 147.7500 119.7500 Du        
  33514 ****       135.5000 147.7500 120.0000 Du        
  33515 ****       135.5000 147.7500 120.2500 Du        
  33516 ****       135.5000 147.7500 120.5000 Du        
  33517 ****       135.5000 147.7500 120.7500 Du        
  33518 ****       135.5000 148.0000 118.5000 Du        
  33519 ****       135.5000 148.0000 118.7500 Du        
  33520 ****       135.5000 148.0000 119.0000 Du        
  33521 ****       135.5000 148.0000 119.2500 Du        
  33522 ****       135.5000 148.0000 119.5000 Du        
  33523 ****       135.5000 148.0000 119.7500 Du        
  33524 ****       135.5000 148.0000 120.0000 Du        
  33525 ****       135.5000 148.0000 120.2500 Du        
  33526 ****       135.5000 148.2500 118.5000 Du        
  33527 ****       135.5000 148.2500 118.7500 Du        
  33528 ****       135.5000 148.2500 119.0000 Du        
  33529 ****       135.5000 148.2500 119.2500 Du        
  33530 ****       135.5000 148.2500 119.5000 Du        
  33531 ****       135.5000 148.2500 119.7500 Du        
  33532 ****       135.5000 148.2500 120.0000 Du        
  33533 ****       135.5000 148.2500 120.2500 Du        
  33534 ****       135.5000 148.5000 118.5000 Du        
  33535 ****       135.5000 148.5000 118.7500 Du        
  33536 ****       135.5000 148.5000 119.0000 Du        
  33537 ****       135.5000 148.5000 119.2500 Du        
  33538 ****       135.5000 153.0000 107.2500 Du        
  33539 ****       135.5000 153.0000 107.5000 Du        
  33540 ****       135.5000 153.0000 107.7500 Du        
  33541 ****       135.5000 153.0000 108.0000 Du        
  33542 ****       135.5000 153.0000 108.2500 Du        
  33543 ****       135.5000 153.0000 108.5000 Du        
  33544 ****       135.5000 153.2500 107.2500 Du        
  33545 ****       135.5000 153.2500 107.5000 Du        
  33546 ****       135.5000 153.2500 107.7500 Du        
  33547 ****       135.5000 153.2500 108.0000 Du        
  33548 ****       135.5000 153.2500 108.2500 Du        
  33549 ****       135.5000 153.2500 108.5000 Du        
  33550 ****       135.5000 153.2500 108.7500 Du        
  33551 ****       135.5000 153.2500 109.0000 Du        
  33552 ****       135.5000 153.5000 107.2500 Du        
  33553 ****       135.5000 153.5000 107.5000 Du        
  33554 ****       135.5000 153.5000 107.7500 Du        
  33555 ****       135.5000 153.5000 108.0000 Du        
  33556 ****       135.5000 153.5000 108.2500 Du        
  33557 ****       135.5000 153.5000 108.5000 Du        
  33558 ****       135.5000 153.5000 108.7500 Du        
  33559 ****       135.5000 153.7500 107.2500 Du        
  33560 ****       135.5000 153.7500 107.5000 Du        
  33561 ****       135.5000 153.7500 107.7500 Du        
  33562 ****       135.5000 153.7500 108.0000 Du        
  33563 ****       135.5000 153.7500 108.2500 Du        
  33564 ****       135.5000 153.7500 108.5000 Du        
  33565 ****       135.5000 153.7500 108.7500 Du        
  33566 ****       135.5000 154.0000 107.2500 Du        
  33567 ****       135.5000 154.0000 107.5000 Du        
  33568 ****       135.5000 154.0000 107.7500 Du        
  33569 ****       135.5000 154.0000 108.0000 Du        
  33570 ****       135.5000 154.0000 108.2500 Du        
  33571 ****       135.5000 154.0000 108.5000 Du        
  33572 ****       135.5000 154.2500 107.7500 Du        
  33573 ****       135.5000 154.2500 108.0000 Du        
  33574 ****       135.5000 154.2500 108.2500 Du        
  33575 ****       135.5000 160.5000 152.5000 Du        
  33576 ****       135.5000 160.5000 152.7500 Du        
  33577 ****       135.5000 160.5000 153.0000 Du        
  33578 ****       135.5000 160.5000 153.2500 Du        
  33579 ****       135.5000 160.7500 152.5000 Du        
  33580 ****       135.5000 160.7500 152.7500 Du        
  33581 ****       135.5000 160.7500 153.0000 Du        
  33582 ****       135.5000 160.7500 153.2500 Du        
  33583 ****       135.5000 160.7500 153.5000 Du        
  33584 ****       135.5000 160.7500 153.7500 Du        
  33585 ****       135.5000 161.0000 152.5000 Du        
  33586 ****       135.5000 161.0000 152.7500 Du        
  33587 ****       135.5000 161.0000 153.0000 Du        
  33588 ****       135.5000 161.0000 153.2500 Du        
  33589 ****       135.5000 161.0000 153.5000 Du        
  33590 ****       135.5000 161.0000 153.7500 Du        
  33591 ****       135.5000 161.0000 154.0000 Du        
  33592 ****       135.5000 161.2500 152.5000 Du        
  33593 ****       135.5000 161.2500 152.7500 Du        
  33594 ****       135.5000 161.2500 153.0000 Du        
  33595 ****       135.5000 161.2500 153.2500 Du        
  33596 ****       135.5000 161.2500 153.5000 Du        
  33597 ****       135.5000 161.2500 153.7500 Du        
  33598 ****       135.5000 161.2500 154.0000 Du        
  33599 ****       135.5000 161.2500 154.2500 Du        
  33600 ****       135.5000 161.5000 152.5000 Du        
  33601 ****       135.5000 161.5000 152.7500 Du        
  33602 ****       135.5000 161.5000 153.0000 Du        
  33603 ****       135.5000 161.5000 153.2500 Du        
  33604 ****       135.5000 161.5000 153.5000 Du        
  33605 ****       135.5000 161.5000 153.7500 Du        
  33606 ****       135.5000 161.5000 154.0000 Du        
  33607 ****       135.5000 161.5000 154.2500 Du        
  33608 ****       135.5000 161.7500 152.5000 Du        
  33609 ****       135.5000 161.7500 152.7500 Du        
  33610 ****       135.5000 161.7500 153.0000 Du        
  33611 ****       135.5000 161.7500 153.2500 Du        
  33612 ****       135.5000 161.7500 153.5000 Du        
  33613 ****       135.5000 161.7500 153.7500 Du        
  33614 ****       135.5000 161.7500 154.0000 Du        
  33615 ****       135.5000 161.7500 154.2500 Du        
  33616 ****       135.5000 162.0000 152.5000 Du        
  33617 ****       135.5000 162.0000 152.7500 Du        
  33618 ****       135.5000 162.0000 153.0000 Du        
  33619 ****       135.5000 162.0000 153.2500 Du        
  33620 ****       135.5000 162.0000 153.5000 Du        
  33621 ****       135.5000 162.0000 153.7500 Du        
  33622 ****       135.5000 162.0000 154.0000 Du        
  33623 ****       135.5000 162.0000 154.2500 Du        
  33624 ****       135.5000 162.2500 152.5000 Du        
  33625 ****       135.5000 162.2500 152.7500 Du        
  33626 ****       135.5000 162.2500 153.0000 Du        
  33627 ****       135.5000 162.2500 153.2500 Du        
  33628 ****       135.5000 162.2500 153.5000 Du        
  33629 ****       135.5000 162.2500 153.7500 Du        
  33630 ****       135.5000 162.2500 154.0000 Du        
  33631 ****       135.5000 162.2500 154.2500 Du        
  33632 ****       135.5000 162.2500 154.5000 Du        
  33633 ****       135.5000 162.5000 152.7500 Du        
  33634 ****       135.5000 162.5000 153.0000 Du        
  33635 ****       135.5000 162.5000 153.2500 Du        
  33636 ****       135.5000 162.5000 153.5000 Du        
  33637 ****       135.5000 162.5000 153.7500 Du        
  33638 ****       135.5000 162.5000 154.0000 Du        
  33639 ****       135.5000 162.5000 154.2500 Du        
  33640 ****       135.5000 162.5000 154.5000 Du        
  33641 ****       135.5000 162.7500 152.7500 Du        
  33642 ****       135.5000 162.7500 153.0000 Du        
  33643 ****       135.5000 162.7500 153.2500 Du        
  33644 ****       135.5000 162.7500 153.5000 Du        
  33645 ****       135.5000 162.7500 153.7500 Du        
  33646 ****       135.5000 162.7500 154.0000 Du        
  33647 ****       135.5000 162.7500 154.2500 Du        
  33648 ****       135.5000 163.0000 152.7500 Du        
  33649 ****       135.5000 163.0000 153.0000 Du        
  33650 ****       135.5000 163.0000 153.2500 Du        
  33651 ****       135.5000 163.0000 153.5000 Du        
  33652 ****       135.5000 163.0000 153.7500 Du        
  33653 ****       135.5000 163.0000 154.0000 Du        
  33654 ****       135.5000 163.0000 154.2500 Du        
  33655 ****       135.5000 163.2500 153.0000 Du        
  33656 ****       135.5000 163.2500 153.2500 Du        
  33657 ****       135.5000 163.2500 153.5000 Du        
  33658 ****       135.5000 163.2500 153.7500 Du        
  33659 ****       135.5000 163.2500 154.0000 Du        
  33660 ****       135.5000 163.2500 154.2500 Du        
  33661 ****       135.7500 122.0000 148.2500 Du        
  33662 ****       135.7500 122.2500 148.2500 Du        
  33663 ****       135.7500 122.2500 148.5000 Du        
  33664 ****       135.7500 126.5000  94.7500 Du        
  33665 ****       135.7500 126.5000  95.0000 Du        
  33666 ****       135.7500 126.5000  95.2500 Du        
  33667 ****       135.7500 126.5000  96.7500 Du        
  33668 ****       135.7500 126.5000  97.0000 Du        
  33669 ****       135.7500 126.7500  94.7500 Du        
  33670 ****       135.7500 126.7500  95.0000 Du        
  33671 ****       135.7500 126.7500  95.2500 Du        
  33672 ****       135.7500 126.7500  95.7500 Du        
  33673 ****       135.7500 126.7500  96.0000 Du        
  33674 ****       135.7500 126.7500  96.7500 Du        
  33675 ****       135.7500 126.7500  97.0000 Du        
  33676 ****       135.7500 126.7500  97.2500 Du        
  33677 ****       135.7500 127.0000  95.7500 Du        
  33678 ****       135.7500 127.0000  96.0000 Du        
  33679 ****       135.7500 127.0000  96.7500 Du        
  33680 ****       135.7500 127.0000  97.0000 Du        
  33681 ****       135.7500 127.0000  97.2500 Du        
  33682 ****       135.7500 127.2500  96.0000 Du        
  33683 ****       135.7500 127.2500  96.7500 Du        
  33684 ****       135.7500 127.2500  97.0000 Du        
  33685 ****       135.7500 127.5000  96.7500 Du        
  33686 ****       135.7500 129.7500 150.7500 Du        
  33687 ****       135.7500 129.7500 151.0000 Du        
  33688 ****       135.7500 129.7500 151.2500 Du        
  33689 ****       135.7500 129.7500 151.5000 Du        
  33690 ****       135.7500 130.0000 150.7500 Du        
  33691 ****       135.7500 130.0000 151.0000 Du        
  33692 ****       135.7500 130.0000 151.2500 Du        
  33693 ****       135.7500 130.0000 151.5000 Du        
  33694 ****       135.7500 130.2500 150.7500 Du        
  33695 ****       135.7500 130.2500 151.0000 Du        
  33696 ****       135.7500 130.2500 151.2500 Du        
  33697 ****       135.7500 130.2500 151.5000 Du        
  33698 ****       135.7500 130.5000 151.0000 Du        
  33699 ****       135.7500 130.5000 151.2500 Du        
  33700 ****       135.7500 130.5000 151.5000 Du        
  33701 ****       135.7500 130.7500 151.0000 Du        
  33702 ****       135.7500 130.7500 151.2500 Du        
  33703 ****       135.7500 130.7500 151.5000 Du        
  33704 ****       135.7500 131.0000 151.2500 Du        
  33705 ****       135.7500 131.0000 151.5000 Du        
  33706 ****       135.7500 131.2500 151.5000 Du        
  33707 ****       135.7500 133.2500 158.7500 Du        
  33708 ****       135.7500 133.5000 158.2500 Du        
  33709 ****       135.7500 133.5000 158.5000 Du        
  33710 ****       135.7500 133.5000 158.7500 Du        
  33711 ****       135.7500 133.5000 159.0000 Du        
  33712 ****       135.7500 133.7500 158.0000 Du        
  33713 ****       135.7500 133.7500 158.2500 Du        
  33714 ****       135.7500 133.7500 158.5000 Du        
  33715 ****       135.7500 133.7500 158.7500 Du        
  33716 ****       135.7500 133.7500 159.0000 Du        
  33717 ****       135.7500 134.0000 158.0000 Du        
  33718 ****       135.7500 134.0000 158.2500 Du        
  33719 ****       135.7500 134.2500 103.7500 Du        
  33720 ****       135.7500 134.2500 104.0000 Du        
  33721 ****       135.7500 134.2500 104.2500 Du        
  33722 ****       135.7500 134.2500 104.5000 Du        
  33723 ****       135.7500 134.5000 103.5000 Du        
  33724 ****       135.7500 134.5000 103.7500 Du        
  33725 ****       135.7500 134.5000 104.0000 Du        
  33726 ****       135.7500 134.5000 104.2500 Du        
  33727 ****       135.7500 134.5000 104.5000 Du        
  33728 ****       135.7500 134.5000 104.7500 Du        
  33729 ****       135.7500 134.7500 103.5000 Du        
  33730 ****       135.7500 134.7500 103.7500 Du        
  33731 ****       135.7500 134.7500 104.0000 Du        
  33732 ****       135.7500 134.7500 104.2500 Du        
  33733 ****       135.7500 134.7500 104.5000 Du        
  33734 ****       135.7500 134.7500 104.7500 Du        
  33735 ****       135.7500 134.7500 105.0000 Du        
  33736 ****       135.7500 135.0000 103.5000 Du        
  33737 ****       135.7500 135.0000 103.7500 Du        
  33738 ****       135.7500 135.0000 104.0000 Du        
  33739 ****       135.7500 135.0000 104.2500 Du        
  33740 ****       135.7500 135.0000 104.5000 Du        
  33741 ****       135.7500 135.0000 104.7500 Du        
  33742 ****       135.7500 135.0000 105.0000 Du        
  33743 ****       135.7500 135.0000 105.2500 Du        
  33744 ****       135.7500 135.2500 103.5000 Du        
  33745 ****       135.7500 135.2500 103.7500 Du        
  33746 ****       135.7500 135.2500 104.0000 Du        
  33747 ****       135.7500 135.2500 104.2500 Du        
  33748 ****       135.7500 135.2500 104.5000 Du        
  33749 ****       135.7500 135.2500 104.7500 Du        
  33750 ****       135.7500 135.2500 105.0000 Du        
  33751 ****       135.7500 135.2500 105.2500 Du        
  33752 ****       135.7500 135.5000 103.5000 Du        
  33753 ****       135.7500 135.5000 103.7500 Du        
  33754 ****       135.7500 135.5000 104.0000 Du        
  33755 ****       135.7500 135.5000 104.2500 Du        
  33756 ****       135.7500 135.5000 104.5000 Du        
  33757 ****       135.7500 135.5000 104.7500 Du        
  33758 ****       135.7500 135.5000 105.0000 Du        
  33759 ****       135.7500 135.5000 105.2500 Du        
  33760 ****       135.7500 135.7500 103.5000 Du        
  33761 ****       135.7500 135.7500 103.7500 Du        
  33762 ****       135.7500 135.7500 104.0000 Du        
  33763 ****       135.7500 135.7500 104.2500 Du        
  33764 ****       135.7500 135.7500 104.5000 Du        
  33765 ****       135.7500 135.7500 104.7500 Du        
  33766 ****       135.7500 135.7500 105.0000 Du        
  33767 ****       135.7500 136.0000 103.5000 Du        
  33768 ****       135.7500 136.0000 103.7500 Du        
  33769 ****       135.7500 136.0000 104.0000 Du        
  33770 ****       135.7500 136.0000 104.2500 Du        
  33771 ****       135.7500 136.0000 104.5000 Du        
  33772 ****       135.7500 136.0000 104.7500 Du        
  33773 ****       135.7500 136.2500 103.5000 Du        
  33774 ****       135.7500 136.2500 103.7500 Du        
  33775 ****       135.7500 136.2500 104.0000 Du        
  33776 ****       135.7500 136.2500 104.2500 Du        
  33777 ****       135.7500 136.2500 104.5000 Du        
  33778 ****       135.7500 136.5000 103.5000 Du        
  33779 ****       135.7500 136.5000 103.7500 Du        
  33780 ****       135.7500 136.5000 104.0000 Du        
  33781 ****       135.7500 136.5000 104.2500 Du        
  33782 ****       135.7500 136.7500 103.5000 Du        
  33783 ****       135.7500 136.7500 103.7500 Du        
  33784 ****       135.7500 136.7500 104.0000 Du        
  33785 ****       135.7500 136.7500 104.2500 Du        
  33786 ****       135.7500 137.0000 103.5000 Du        
  33787 ****       135.7500 137.0000 103.7500 Du        
  33788 ****       135.7500 137.0000 104.0000 Du        
  33789 ****       135.7500 137.0000 104.2500 Du        
  33790 ****       135.7500 137.2500 103.5000 Du        
  33791 ****       135.7500 137.2500 103.7500 Du        
  33792 ****       135.7500 137.2500 104.0000 Du        
  33793 ****       135.7500 137.2500 104.2500 Du        
  33794 ****       135.7500 137.5000 103.5000 Du        
  33795 ****       135.7500 137.5000 103.7500 Du        
  33796 ****       135.7500 137.5000 104.0000 Du        
  33797 ****       135.7500 137.5000 104.2500 Du        
  33798 ****       135.7500 137.7500 103.2500 Du        
  33799 ****       135.7500 137.7500 103.5000 Du        
  33800 ****       135.7500 137.7500 103.7500 Du        
  33801 ****       135.7500 137.7500 104.0000 Du        
  33802 ****       135.7500 137.7500 104.2500 Du        
  33803 ****       135.7500 137.7500 104.5000 Du        
  33804 ****       135.7500 138.0000 103.2500 Du        
  33805 ****       135.7500 138.0000 103.5000 Du        
  33806 ****       135.7500 138.0000 103.7500 Du        
  33807 ****       135.7500 138.0000 104.0000 Du        
  33808 ****       135.7500 138.0000 104.2500 Du        
  33809 ****       135.7500 138.0000 104.5000 Du        
  33810 ****       135.7500 138.0000 104.7500 Du        
  33811 ****       135.7500 138.0000 105.0000 Du        
  33812 ****       135.7500 138.2500 103.0000 Du        
  33813 ****       135.7500 138.2500 103.2500 Du        
  33814 ****       135.7500 138.2500 103.5000 Du        
  33815 ****       135.7500 138.2500 103.7500 Du        
  33816 ****       135.7500 138.2500 104.0000 Du        
  33817 ****       135.7500 138.2500 104.2500 Du        
  33818 ****       135.7500 138.2500 104.5000 Du        
  33819 ****       135.7500 138.2500 104.7500 Du        
  33820 ****       135.7500 138.2500 105.0000 Du        
  33821 ****       135.7500 138.2500 105.2500 Du        
  33822 ****       135.7500 138.5000 103.0000 Du        
  33823 ****       135.7500 138.5000 103.2500 Du        
  33824 ****       135.7500 138.5000 103.5000 Du        
  33825 ****       135.7500 138.5000 103.7500 Du        
  33826 ****       135.7500 138.5000 104.0000 Du        
  33827 ****       135.7500 138.5000 104.2500 Du        
  33828 ****       135.7500 138.5000 104.5000 Du        
  33829 ****       135.7500 138.5000 104.7500 Du        
  33830 ****       135.7500 138.5000 105.0000 Du        
  33831 ****       135.7500 138.5000 105.2500 Du        
  33832 ****       135.7500 138.5000 105.5000 Du        
  33833 ****       135.7500 138.7500 103.0000 Du        
  33834 ****       135.7500 138.7500 103.2500 Du        
  33835 ****       135.7500 138.7500 103.5000 Du        
  33836 ****       135.7500 138.7500 103.7500 Du        
  33837 ****       135.7500 138.7500 104.0000 Du        
  33838 ****       135.7500 138.7500 104.2500 Du        
  33839 ****       135.7500 138.7500 104.5000 Du        
  33840 ****       135.7500 138.7500 104.7500 Du        
  33841 ****       135.7500 138.7500 105.0000 Du        
  33842 ****       135.7500 138.7500 105.2500 Du        
  33843 ****       135.7500 138.7500 105.5000 Du        
  33844 ****       135.7500 139.0000 103.2500 Du        
  33845 ****       135.7500 139.0000 103.5000 Du        
  33846 ****       135.7500 139.0000 103.7500 Du        
  33847 ****       135.7500 139.0000 104.0000 Du        
  33848 ****       135.7500 139.0000 104.2500 Du        
  33849 ****       135.7500 139.0000 104.5000 Du        
  33850 ****       135.7500 139.0000 104.7500 Du        
  33851 ****       135.7500 139.0000 105.0000 Du        
  33852 ****       135.7500 139.0000 105.2500 Du        
  33853 ****       135.7500 140.7500  94.7500 Du        
  33854 ****       135.7500 140.7500  95.0000 Du        
  33855 ****       135.7500 141.0000  94.5000 Du        
  33856 ****       135.7500 141.0000  94.7500 Du        
  33857 ****       135.7500 141.0000  95.0000 Du        
  33858 ****       135.7500 141.0000 139.7500 Du        
  33859 ****       135.7500 141.0000 140.0000 Du        
  33860 ****       135.7500 141.2500  94.5000 Du        
  33861 ****       135.7500 141.2500  94.7500 Du        
  33862 ****       135.7500 141.2500  95.0000 Du        
  33863 ****       135.7500 141.2500 139.5000 Du        
  33864 ****       135.7500 141.2500 139.7500 Du        
  33865 ****       135.7500 141.2500 140.0000 Du        
  33866 ****       135.7500 141.5000  94.5000 Du        
  33867 ****       135.7500 141.7500  94.2500 Du        
  33868 ****       135.7500 142.5000  94.0000 Du        
  33869 ****       135.7500 142.7500  93.5000 Du        
  33870 ****       135.7500 142.7500  93.7500 Du        
  33871 ****       135.7500 142.7500  94.0000 Du        
  33872 ****       135.7500 143.0000  93.5000 Du        
  33873 ****       135.7500 143.0000  93.7500 Du        
  33874 ****       135.7500 143.2500 129.2500 Du        
  33875 ****       135.7500 143.2500 129.5000 Du        
  33876 ****       135.7500 143.2500 129.7500 Du        
  33877 ****       135.7500 143.2500 130.0000 Du        
  33878 ****       135.7500 143.2500 130.2500 Du        
  33879 ****       135.7500 143.5000 129.2500 Du        
  33880 ****       135.7500 143.5000 129.5000 Du        
  33881 ****       135.7500 143.5000 129.7500 Du        
  33882 ****       135.7500 143.5000 130.0000 Du        
  33883 ****       135.7500 143.5000 130.2500 Du        
  33884 ****       135.7500 143.5000 130.5000 Du        
  33885 ****       135.7500 143.7500  92.7500 Du        
  33886 ****       135.7500 143.7500 129.0000 Du        
  33887 ****       135.7500 143.7500 129.2500 Du        
  33888 ****       135.7500 143.7500 129.5000 Du        
  33889 ****       135.7500 143.7500 129.7500 Du        
  33890 ****       135.7500 143.7500 130.0000 Du        
  33891 ****       135.7500 143.7500 130.2500 Du        
  33892 ****       135.7500 143.7500 130.5000 Du        
  33893 ****       135.7500 143.7500 130.7500 Du        
  33894 ****       135.7500 144.0000 129.0000 Du        
  33895 ****       135.7500 144.0000 129.2500 Du        
  33896 ****       135.7500 144.0000 129.5000 Du        
  33897 ****       135.7500 144.0000 129.7500 Du        
  33898 ****       135.7500 144.0000 130.0000 Du        
  33899 ****       135.7500 144.0000 130.2500 Du        
  33900 ****       135.7500 144.0000 130.5000 Du        
  33901 ****       135.7500 144.0000 130.7500 Du        
  33902 ****       135.7500 144.2500 129.7500 Du        
  33903 ****       135.7500 144.2500 130.0000 Du        
  33904 ****       135.7500 144.2500 130.2500 Du        
  33905 ****       135.7500 147.5000 120.2500 Du        
  33906 ****       135.7500 147.7500 119.0000 Du        
  33907 ****       135.7500 147.7500 119.2500 Du        
  33908 ****       135.7500 147.7500 119.5000 Du        
  33909 ****       135.7500 147.7500 119.7500 Du        
  33910 ****       135.7500 147.7500 120.0000 Du        
  33911 ****       135.7500 147.7500 120.2500 Du        
  33912 ****       135.7500 147.7500 120.5000 Du        
  33913 ****       135.7500 147.7500 120.7500 Du        
  33914 ****       135.7500 148.0000 118.7500 Du        
  33915 ****       135.7500 148.0000 119.0000 Du        
  33916 ****       135.7500 148.0000 119.2500 Du        
  33917 ****       135.7500 148.0000 119.5000 Du        
  33918 ****       135.7500 148.0000 119.7500 Du        
  33919 ****       135.7500 148.0000 120.0000 Du        
  33920 ****       135.7500 148.0000 120.2500 Du        
  33921 ****       135.7500 148.0000 120.5000 Du        
  33922 ****       135.7500 148.2500 118.5000 Du        
  33923 ****       135.7500 148.2500 118.7500 Du        
  33924 ****       135.7500 148.2500 119.0000 Du        
  33925 ****       135.7500 148.2500 119.2500 Du        
  33926 ****       135.7500 148.2500 119.5000 Du        
  33927 ****       135.7500 148.2500 119.7500 Du        
  33928 ****       135.7500 148.2500 120.0000 Du        
  33929 ****       135.7500 148.2500 120.2500 Du        
  33930 ****       135.7500 148.5000 118.5000 Du        
  33931 ****       135.7500 148.5000 118.7500 Du        
  33932 ****       135.7500 148.5000 119.0000 Du        
  33933 ****       135.7500 148.5000 119.2500 Du        
  33934 ****       135.7500 148.7500 118.5000 Du        
  33935 ****       135.7500 148.7500 118.7500 Du        
  33936 ****       135.7500 148.7500 119.0000 Du        
  33937 ****       135.7500 152.7500 107.0000 Du        
  33938 ****       135.7500 152.7500 107.2500 Du        
  33939 ****       135.7500 152.7500 107.5000 Du        
  33940 ****       135.7500 152.7500 107.7500 Du        
  33941 ****       135.7500 153.0000 107.0000 Du        
  33942 ****       135.7500 153.0000 107.2500 Du        
  33943 ****       135.7500 153.0000 107.5000 Du        
  33944 ****       135.7500 153.0000 107.7500 Du        
  33945 ****       135.7500 153.0000 108.0000 Du        
  33946 ****       135.7500 153.0000 108.2500 Du        
  33947 ****       135.7500 153.0000 108.5000 Du        
  33948 ****       135.7500 153.2500 107.0000 Du        
  33949 ****       135.7500 153.2500 107.2500 Du        
  33950 ****       135.7500 153.2500 107.5000 Du        
  33951 ****       135.7500 153.2500 107.7500 Du        
  33952 ****       135.7500 153.2500 108.0000 Du        
  33953 ****       135.7500 153.2500 108.2500 Du        
  33954 ****       135.7500 153.2500 108.5000 Du        
  33955 ****       135.7500 153.2500 108.7500 Du        
  33956 ****       135.7500 153.2500 109.0000 Du        
  33957 ****       135.7500 153.5000 107.0000 Du        
  33958 ****       135.7500 153.5000 107.2500 Du        
  33959 ****       135.7500 153.5000 107.5000 Du        
  33960 ****       135.7500 153.5000 107.7500 Du        
  33961 ****       135.7500 153.5000 108.0000 Du        
  33962 ****       135.7500 153.5000 108.2500 Du        
  33963 ****       135.7500 153.5000 108.5000 Du        
  33964 ****       135.7500 153.5000 108.7500 Du        
  33965 ****       135.7500 153.7500 107.0000 Du        
  33966 ****       135.7500 153.7500 107.2500 Du        
  33967 ****       135.7500 153.7500 107.5000 Du        
  33968 ****       135.7500 153.7500 107.7500 Du        
  33969 ****       135.7500 153.7500 108.0000 Du        
  33970 ****       135.7500 153.7500 108.2500 Du        
  33971 ****       135.7500 153.7500 108.5000 Du        
  33972 ****       135.7500 153.7500 108.7500 Du        
  33973 ****       135.7500 154.0000 107.2500 Du        
  33974 ****       135.7500 154.0000 107.5000 Du        
  33975 ****       135.7500 154.0000 107.7500 Du        
  33976 ****       135.7500 154.0000 108.0000 Du        
  33977 ****       135.7500 154.0000 108.2500 Du        
  33978 ****       135.7500 154.2500 107.2500 Du        
  33979 ****       135.7500 154.2500 107.5000 Du        
  33980 ****       135.7500 154.2500 107.7500 Du        
  33981 ****       135.7500 154.2500 108.0000 Du        
  33982 ****       135.7500 154.2500 108.2500 Du        
  33983 ****       135.7500 160.5000 152.7500 Du        
  33984 ****       135.7500 160.5000 153.0000 Du        
  33985 ****       135.7500 160.5000 153.2500 Du        
  33986 ****       135.7500 160.5000 153.5000 Du        
  33987 ****       135.7500 160.7500 152.5000 Du        
  33988 ****       135.7500 160.7500 152.7500 Du        
  33989 ****       135.7500 160.7500 153.0000 Du        
  33990 ****       135.7500 160.7500 153.2500 Du        
  33991 ****       135.7500 160.7500 153.5000 Du        
  33992 ****       135.7500 160.7500 153.7500 Du        
  33993 ****       135.7500 160.7500 154.0000 Du        
  33994 ****       135.7500 161.0000 152.5000 Du        
  33995 ****       135.7500 161.0000 152.7500 Du        
  33996 ****       135.7500 161.0000 153.0000 Du        
  33997 ****       135.7500 161.0000 153.2500 Du        
  33998 ****       135.7500 161.0000 153.5000 Du        
  33999 ****       135.7500 161.0000 153.7500 Du        
  34000 ****       135.7500 161.0000 154.0000 Du        
  34001 ****       135.7500 161.0000 154.2500 Du        
  34002 ****       135.7500 161.2500 152.5000 Du        
  34003 ****       135.7500 161.2500 152.7500 Du        
  34004 ****       135.7500 161.2500 153.0000 Du        
  34005 ****       135.7500 161.2500 153.2500 Du        
  34006 ****       135.7500 161.2500 153.5000 Du        
  34007 ****       135.7500 161.2500 153.7500 Du        
  34008 ****       135.7500 161.2500 154.0000 Du        
  34009 ****       135.7500 161.2500 154.2500 Du        
  34010 ****       135.7500 161.5000 152.5000 Du        
  34011 ****       135.7500 161.5000 152.7500 Du        
  34012 ****       135.7500 161.5000 153.0000 Du        
  34013 ****       135.7500 161.5000 153.2500 Du        
  34014 ****       135.7500 161.5000 153.5000 Du        
  34015 ****       135.7500 161.5000 153.7500 Du        
  34016 ****       135.7500 161.5000 154.0000 Du        
  34017 ****       135.7500 161.5000 154.2500 Du        
  34018 ****       135.7500 161.7500 152.5000 Du        
  34019 ****       135.7500 161.7500 152.7500 Du        
  34020 ****       135.7500 161.7500 153.0000 Du        
  34021 ****       135.7500 161.7500 153.2500 Du        
  34022 ****       135.7500 161.7500 153.5000 Du        
  34023 ****       135.7500 161.7500 153.7500 Du        
  34024 ****       135.7500 161.7500 154.0000 Du        
  34025 ****       135.7500 161.7500 154.2500 Du        
  34026 ****       135.7500 161.7500 154.5000 Du        
  34027 ****       135.7500 162.0000 152.5000 Du        
  34028 ****       135.7500 162.0000 152.7500 Du        
  34029 ****       135.7500 162.0000 153.0000 Du        
  34030 ****       135.7500 162.0000 153.2500 Du        
  34031 ****       135.7500 162.0000 153.5000 Du        
  34032 ****       135.7500 162.0000 153.7500 Du        
  34033 ****       135.7500 162.0000 154.0000 Du        
  34034 ****       135.7500 162.0000 154.2500 Du        
  34035 ****       135.7500 162.0000 154.5000 Du        
  34036 ****       135.7500 162.2500 152.5000 Du        
  34037 ****       135.7500 162.2500 152.7500 Du        
  34038 ****       135.7500 162.2500 153.0000 Du        
  34039 ****       135.7500 162.2500 153.2500 Du        
  34040 ****       135.7500 162.2500 153.5000 Du        
  34041 ****       135.7500 162.2500 153.7500 Du        
  34042 ****       135.7500 162.2500 154.0000 Du        
  34043 ****       135.7500 162.2500 154.2500 Du        
  34044 ****       135.7500 162.2500 154.5000 Du        
  34045 ****       135.7500 162.5000 152.7500 Du        
  34046 ****       135.7500 162.5000 153.0000 Du        
  34047 ****       135.7500 162.5000 153.2500 Du        
  34048 ****       135.7500 162.5000 153.5000 Du        
  34049 ****       135.7500 162.5000 153.7500 Du        
  34050 ****       135.7500 162.5000 154.0000 Du        
  34051 ****       135.7500 162.5000 154.2500 Du        
  34052 ****       135.7500 162.7500 152.7500 Du        
  34053 ****       135.7500 162.7500 153.0000 Du        
  34054 ****       135.7500 162.7500 153.2500 Du        
  34055 ****       135.7500 162.7500 153.5000 Du        
  34056 ****       135.7500 162.7500 153.7500 Du        
  34057 ****       135.7500 162.7500 154.0000 Du        
  34058 ****       135.7500 162.7500 154.2500 Du        
  34059 ****       135.7500 163.0000 152.7500 Du        
  34060 ****       135.7500 163.0000 153.0000 Du        
  34061 ****       135.7500 163.0000 153.2500 Du        
  34062 ****       135.7500 163.0000 153.5000 Du        
  34063 ****       135.7500 163.0000 153.7500 Du        
  34064 ****       135.7500 163.0000 154.0000 Du        
  34065 ****       135.7500 163.0000 154.2500 Du        
  34066 ****       135.7500 163.2500 153.0000 Du        
  34067 ****       135.7500 163.2500 153.2500 Du        
  34068 ****       135.7500 163.2500 153.5000 Du        
  34069 ****       135.7500 163.2500 153.7500 Du        
  34070 ****       135.7500 163.2500 154.0000 Du        
  34071 ****       136.0000 126.5000  95.0000 Du        
  34072 ****       136.0000 126.5000  97.0000 Du        
  34073 ****       136.0000 126.5000  97.2500 Du        
  34074 ****       136.0000 126.7500  94.7500 Du        
  34075 ****       136.0000 126.7500  95.0000 Du        
  34076 ****       136.0000 126.7500  95.2500 Du        
  34077 ****       136.0000 126.7500  96.0000 Du        
  34078 ****       136.0000 126.7500  96.7500 Du        
  34079 ****       136.0000 126.7500  97.0000 Du        
  34080 ****       136.0000 126.7500  97.2500 Du        
  34081 ****       136.0000 127.0000  95.7500 Du        
  34082 ****       136.0000 127.0000  96.0000 Du        
  34083 ****       136.0000 127.0000  96.7500 Du        
  34084 ****       136.0000 127.0000  97.0000 Du        
  34085 ****       136.0000 127.0000  97.2500 Du        
  34086 ****       136.0000 127.2500  96.0000 Du        
  34087 ****       136.0000 127.2500  96.7500 Du        
  34088 ****       136.0000 127.2500  97.0000 Du        
  34089 ****       136.0000 127.2500  97.2500 Du        
  34090 ****       136.0000 127.5000  96.7500 Du        
  34091 ****       136.0000 127.5000  97.0000 Du        
  34092 ****       136.0000 129.2500 150.5000 Du        
  34093 ****       136.0000 129.2500 150.7500 Du        
  34094 ****       136.0000 129.2500 151.0000 Du        
  34095 ****       136.0000 129.5000 150.5000 Du        
  34096 ****       136.0000 129.5000 150.7500 Du        
  34097 ****       136.0000 129.5000 151.0000 Du        
  34098 ****       136.0000 129.7500 150.5000 Du        
  34099 ****       136.0000 129.7500 150.7500 Du        
  34100 ****       136.0000 129.7500 151.0000 Du        
  34101 ****       136.0000 129.7500 151.2500 Du        
  34102 ****       136.0000 130.0000 150.5000 Du        
  34103 ****       136.0000 130.0000 150.7500 Du        
  34104 ****       136.0000 130.0000 151.0000 Du        
  34105 ****       136.0000 130.0000 151.2500 Du        
  34106 ****       136.0000 130.2500 150.5000 Du        
  34107 ****       136.0000 130.2500 150.7500 Du        
  34108 ****       136.0000 130.2500 151.0000 Du        
  34109 ****       136.0000 130.2500 151.2500 Du        
  34110 ****       136.0000 133.7500 158.0000 Du        
  34111 ****       136.0000 133.7500 158.2500 Du        
  34112 ****       136.0000 133.7500 158.5000 Du        
  34113 ****       136.0000 134.0000 158.0000 Du        
  34114 ****       136.0000 134.0000 158.2500 Du        
  34115 ****       136.0000 134.2500 103.5000 Du        
  34116 ****       136.0000 134.2500 103.7500 Du        
  34117 ****       136.0000 134.2500 104.0000 Du        
  34118 ****       136.0000 134.2500 104.2500 Du        
  34119 ****       136.0000 134.5000 103.2500 Du        
  34120 ****       136.0000 134.5000 103.5000 Du        
  34121 ****       136.0000 134.5000 103.7500 Du        
  34122 ****       136.0000 134.5000 104.0000 Du        
  34123 ****       136.0000 134.5000 104.2500 Du        
  34124 ****       136.0000 134.5000 104.5000 Du        
  34125 ****       136.0000 134.7500 103.2500 Du        
  34126 ****       136.0000 134.7500 103.5000 Du        
  34127 ****       136.0000 134.7500 103.7500 Du        
  34128 ****       136.0000 134.7500 104.0000 Du        
  34129 ****       136.0000 134.7500 104.2500 Du        
  34130 ****       136.0000 134.7500 104.5000 Du        
  34131 ****       136.0000 134.7500 104.7500 Du        
  34132 ****       136.0000 135.0000 103.2500 Du        
  34133 ****       136.0000 135.0000 103.5000 Du        
  34134 ****       136.0000 135.0000 103.7500 Du        
  34135 ****       136.0000 135.0000 104.0000 Du        
  34136 ****       136.0000 135.0000 104.2500 Du        
  34137 ****       136.0000 135.0000 104.5000 Du        
  34138 ****       136.0000 135.0000 104.7500 Du        
  34139 ****       136.0000 135.0000 105.0000 Du        
  34140 ****       136.0000 135.2500 103.5000 Du        
  34141 ****       136.0000 135.2500 103.7500 Du        
  34142 ****       136.0000 135.2500 104.0000 Du        
  34143 ****       136.0000 135.2500 104.2500 Du        
  34144 ****       136.0000 135.2500 104.5000 Du        
  34145 ****       136.0000 135.2500 104.7500 Du        
  34146 ****       136.0000 135.5000 103.5000 Du        
  34147 ****       136.0000 135.5000 103.7500 Du        
  34148 ****       136.0000 135.5000 104.0000 Du        
  34149 ****       136.0000 135.5000 104.2500 Du        
  34150 ****       136.0000 135.5000 104.5000 Du        
  34151 ****       136.0000 135.5000 104.7500 Du        
  34152 ****       136.0000 135.7500 103.5000 Du        
  34153 ****       136.0000 135.7500 103.7500 Du        
  34154 ****       136.0000 135.7500 104.0000 Du        
  34155 ****       136.0000 135.7500 104.2500 Du        
  34156 ****       136.0000 136.0000 103.5000 Du        
  34157 ****       136.0000 136.0000 103.7500 Du        
  34158 ****       136.0000 136.0000 104.0000 Du        
  34159 ****       136.0000 136.0000 104.2500 Du        
  34160 ****       136.0000 136.2500 103.7500 Du        
  34161 ****       136.0000 136.2500 104.0000 Du        
  34162 ****       136.0000 137.5000 103.7500 Du        
  34163 ****       136.0000 137.7500 103.5000 Du        
  34164 ****       136.0000 137.7500 103.7500 Du        
  34165 ****       136.0000 137.7500 104.0000 Du        
  34166 ****       136.0000 138.0000 103.5000 Du        
  34167 ****       136.0000 138.0000 103.7500 Du        
  34168 ****       136.0000 138.0000 104.0000 Du        
  34169 ****       136.0000 138.0000 104.2500 Du        
  34170 ****       136.0000 138.2500 103.2500 Du        
  34171 ****       136.0000 138.2500 103.5000 Du        
  34172 ****       136.0000 138.2500 103.7500 Du        
  34173 ****       136.0000 138.2500 104.0000 Du        
  34174 ****       136.0000 138.2500 104.2500 Du        
  34175 ****       136.0000 138.2500 104.5000 Du        
  34176 ****       136.0000 138.5000 103.2500 Du        
  34177 ****       136.0000 138.5000 103.5000 Du        
  34178 ****       136.0000 138.5000 103.7500 Du        
  34179 ****       136.0000 138.5000 104.0000 Du        
  34180 ****       136.0000 138.5000 104.2500 Du        
  34181 ****       136.0000 138.5000 104.5000 Du        
  34182 ****       136.0000 138.5000 104.7500 Du        
  34183 ****       136.0000 138.7500 103.2500 Du        
  34184 ****       136.0000 138.7500 103.5000 Du        
  34185 ****       136.0000 138.7500 103.7500 Du        
  34186 ****       136.0000 138.7500 104.0000 Du        
  34187 ****       136.0000 138.7500 104.2500 Du        
  34188 ****       136.0000 138.7500 104.5000 Du        
  34189 ****       136.0000 138.7500 104.7500 Du        
  34190 ****       136.0000 138.7500 105.0000 Du        
  34191 ****       136.0000 138.7500 105.2500 Du        
  34192 ****       136.0000 139.0000  93.0000 Du        
  34193 ****       136.0000 139.0000 104.7500 Du        
  34194 ****       136.0000 139.0000 105.0000 Du        
  34195 ****       136.0000 139.0000 105.2500 Du        
  34196 ****       136.0000 140.7500  94.2500 Du        
  34197 ****       136.0000 140.7500  94.5000 Du        
  34198 ****       136.0000 140.7500  94.7500 Du        
  34199 ****       136.0000 140.7500  95.0000 Du        
  34200 ****       136.0000 140.7500  95.2500 Du        
  34201 ****       136.0000 141.0000  94.2500 Du        
  34202 ****       136.0000 141.0000  94.5000 Du        
  34203 ****       136.0000 141.0000  94.7500 Du        
  34204 ****       136.0000 141.0000  95.0000 Du        
  34205 ****       136.0000 141.0000  95.2500 Du        
  34206 ****       136.0000 141.0000 139.7500 Du        
  34207 ****       136.0000 141.2500  94.5000 Du        
  34208 ****       136.0000 141.2500  94.7500 Du        
  34209 ****       136.0000 141.2500  95.0000 Du        
  34210 ****       136.0000 141.5000  94.0000 Du        
  34211 ****       136.0000 141.5000  94.2500 Du        
  34212 ****       136.0000 141.5000  94.5000 Du        
  34213 ****       136.0000 141.5000  94.7500 Du        
  34214 ****       136.0000 141.7500  94.0000 Du        
  34215 ****       136.0000 141.7500  94.2500 Du        
  34216 ****       136.0000 141.7500  94.5000 Du        
  34217 ****       136.0000 142.0000  94.0000 Du        
  34218 ****       136.0000 142.0000  94.2500 Du        
  34219 ****       136.0000 142.5000  93.5000 Du        
  34220 ****       136.0000 142.5000  93.7500 Du        
  34221 ****       136.0000 142.5000  94.0000 Du        
  34222 ****       136.0000 142.7500  93.5000 Du        
  34223 ****       136.0000 142.7500  93.7500 Du        
  34224 ****       136.0000 142.7500  94.0000 Du        
  34225 ****       136.0000 143.0000  93.2500 Du        
  34226 ****       136.0000 143.0000  93.5000 Du        
  34227 ****       136.0000 143.0000  93.7500 Du        
  34228 ****       136.0000 143.2500  93.5000 Du        
  34229 ****       136.0000 143.2500 129.7500 Du        
  34230 ****       136.0000 143.2500 130.0000 Du        
  34231 ****       136.0000 143.2500 130.2500 Du        
  34232 ****       136.0000 143.5000 129.7500 Du        
  34233 ****       136.0000 143.5000 130.0000 Du        
  34234 ****       136.0000 143.5000 130.2500 Du        
  34235 ****       136.0000 143.5000 130.5000 Du        
  34236 ****       136.0000 143.7500 129.5000 Du        
  34237 ****       136.0000 143.7500 129.7500 Du        
  34238 ****       136.0000 143.7500 130.0000 Du        
  34239 ****       136.0000 143.7500 130.2500 Du        
  34240 ****       136.0000 143.7500 130.5000 Du        
  34241 ****       136.0000 143.7500 130.7500 Du        
  34242 ****       136.0000 143.7500 131.0000 Du        
  34243 ****       136.0000 144.0000 129.2500 Du        
  34244 ****       136.0000 144.0000 129.5000 Du        
  34245 ****       136.0000 144.0000 129.7500 Du        
  34246 ****       136.0000 144.0000 130.0000 Du        
  34247 ****       136.0000 144.0000 130.2500 Du        
  34248 ****       136.0000 144.0000 130.5000 Du        
  34249 ****       136.0000 144.0000 130.7500 Du        
  34250 ****       136.0000 144.0000 131.0000 Du        
  34251 ****       136.0000 144.2500 129.7500 Du        
  34252 ****       136.0000 144.2500 130.2500 Du        
  34253 ****       136.0000 147.7500 119.2500 Du        
  34254 ****       136.0000 147.7500 119.5000 Du        
  34255 ****       136.0000 147.7500 119.7500 Du        
  34256 ****       136.0000 147.7500 120.0000 Du        
  34257 ****       136.0000 147.7500 120.2500 Du        
  34258 ****       136.0000 148.0000 118.7500 Du        
  34259 ****       136.0000 148.0000 119.0000 Du        
  34260 ****       136.0000 148.0000 119.2500 Du        
  34261 ****       136.0000 148.0000 119.5000 Du        
  34262 ****       136.0000 148.0000 119.7500 Du        
  34263 ****       136.0000 148.0000 120.0000 Du        
  34264 ****       136.0000 148.0000 120.2500 Du        
  34265 ****       136.0000 148.2500 118.7500 Du        
  34266 ****       136.0000 148.2500 119.0000 Du        
  34267 ****       136.0000 148.2500 119.2500 Du        
  34268 ****       136.0000 148.2500 119.5000 Du        
  34269 ****       136.0000 148.2500 119.7500 Du        
  34270 ****       136.0000 148.2500 120.0000 Du        
  34271 ****       136.0000 148.2500 120.2500 Du        
  34272 ****       136.0000 148.5000 118.7500 Du        
  34273 ****       136.0000 148.5000 119.0000 Du        
  34274 ****       136.0000 148.5000 119.2500 Du        
  34275 ****       136.0000 148.7500 118.7500 Du        
  34276 ****       136.0000 148.7500 119.0000 Du        
  34277 ****       136.0000 148.7500 119.2500 Du        
  34278 ****       136.0000 152.5000 106.7500 Du        
  34279 ****       136.0000 152.5000 107.0000 Du        
  34280 ****       136.0000 152.7500 106.7500 Du        
  34281 ****       136.0000 152.7500 107.0000 Du        
  34282 ****       136.0000 152.7500 107.2500 Du        
  34283 ****       136.0000 152.7500 107.5000 Du        
  34284 ****       136.0000 152.7500 107.7500 Du        
  34285 ****       136.0000 152.7500 108.0000 Du        
  34286 ****       136.0000 153.0000 106.7500 Du        
  34287 ****       136.0000 153.0000 107.0000 Du        
  34288 ****       136.0000 153.0000 107.2500 Du        
  34289 ****       136.0000 153.0000 107.5000 Du        
  34290 ****       136.0000 153.0000 107.7500 Du        
  34291 ****       136.0000 153.0000 108.0000 Du        
  34292 ****       136.0000 153.0000 108.2500 Du        
  34293 ****       136.0000 153.0000 108.5000 Du        
  34294 ****       136.0000 153.2500 106.7500 Du        
  34295 ****       136.0000 153.2500 107.0000 Du        
  34296 ****       136.0000 153.2500 107.2500 Du        
  34297 ****       136.0000 153.2500 107.5000 Du        
  34298 ****       136.0000 153.2500 107.7500 Du        
  34299 ****       136.0000 153.2500 108.0000 Du        
  34300 ****       136.0000 153.2500 108.2500 Du        
  34301 ****       136.0000 153.2500 108.5000 Du        
  34302 ****       136.0000 153.2500 108.7500 Du        
  34303 ****       136.0000 153.2500 109.0000 Du        
  34304 ****       136.0000 153.5000 106.7500 Du        
  34305 ****       136.0000 153.5000 107.0000 Du        
  34306 ****       136.0000 153.5000 107.2500 Du        
  34307 ****       136.0000 153.5000 107.5000 Du        
  34308 ****       136.0000 153.5000 107.7500 Du        
  34309 ****       136.0000 153.5000 108.0000 Du        
  34310 ****       136.0000 153.5000 108.2500 Du        
  34311 ****       136.0000 153.5000 108.5000 Du        
  34312 ****       136.0000 153.5000 108.7500 Du        
  34313 ****       136.0000 153.7500 106.7500 Du        
  34314 ****       136.0000 153.7500 107.0000 Du        
  34315 ****       136.0000 153.7500 107.2500 Du        
  34316 ****       136.0000 153.7500 107.5000 Du        
  34317 ****       136.0000 153.7500 107.7500 Du        
  34318 ****       136.0000 153.7500 108.0000 Du        
  34319 ****       136.0000 153.7500 108.2500 Du        
  34320 ****       136.0000 153.7500 108.5000 Du        
  34321 ****       136.0000 153.7500 108.7500 Du        
  34322 ****       136.0000 154.0000 107.0000 Du        
  34323 ****       136.0000 154.0000 107.2500 Du        
  34324 ****       136.0000 154.0000 107.5000 Du        
  34325 ****       136.0000 154.0000 107.7500 Du        
  34326 ****       136.0000 154.0000 108.0000 Du        
  34327 ****       136.0000 154.0000 108.2500 Du        
  34328 ****       136.0000 154.2500 107.0000 Du        
  34329 ****       136.0000 154.2500 107.2500 Du        
  34330 ****       136.0000 154.2500 107.5000 Du        
  34331 ****       136.0000 154.2500 107.7500 Du        
  34332 ****       136.0000 154.2500 108.0000 Du        
  34333 ****       136.0000 160.2500 152.7500 Du        
  34334 ****       136.0000 160.2500 153.0000 Du        
  34335 ****       136.0000 160.5000 152.7500 Du        
  34336 ****       136.0000 160.5000 153.0000 Du        
  34337 ****       136.0000 160.5000 153.2500 Du        
  34338 ****       136.0000 160.5000 153.5000 Du        
  34339 ****       136.0000 160.5000 153.7500 Du        
  34340 ****       136.0000 160.5000 154.0000 Du        
  34341 ****       136.0000 160.7500 152.5000 Du        
  34342 ****       136.0000 160.7500 152.7500 Du        
  34343 ****       136.0000 160.7500 153.0000 Du        
  34344 ****       136.0000 160.7500 153.2500 Du        
  34345 ****       136.0000 160.7500 153.5000 Du        
  34346 ****       136.0000 160.7500 153.7500 Du        
  34347 ****       136.0000 160.7500 154.0000 Du        
  34348 ****       136.0000 160.7500 154.2500 Du        
  34349 ****       136.0000 161.0000 152.5000 Du        
  34350 ****       136.0000 161.0000 152.7500 Du        
  34351 ****       136.0000 161.0000 153.0000 Du        
  34352 ****       136.0000 161.0000 153.2500 Du        
  34353 ****       136.0000 161.0000 153.5000 Du        
  34354 ****       136.0000 161.0000 153.7500 Du        
  34355 ****       136.0000 161.0000 154.0000 Du        
  34356 ****       136.0000 161.0000 154.2500 Du        
  34357 ****       136.0000 161.2500 152.5000 Du        
  34358 ****       136.0000 161.2500 152.7500 Du        
  34359 ****       136.0000 161.2500 153.0000 Du        
  34360 ****       136.0000 161.2500 153.2500 Du        
  34361 ****       136.0000 161.2500 153.5000 Du        
  34362 ****       136.0000 161.2500 153.7500 Du        
  34363 ****       136.0000 161.2500 154.0000 Du        
  34364 ****       136.0000 161.2500 154.2500 Du        
  34365 ****       136.0000 161.2500 154.5000 Du        
  34366 ****       136.0000 161.5000 152.5000 Du        
  34367 ****       136.0000 161.5000 152.7500 Du        
  34368 ****       136.0000 161.5000 153.0000 Du        
  34369 ****       136.0000 161.5000 153.2500 Du        
  34370 ****       136.0000 161.5000 153.5000 Du        
  34371 ****       136.0000 161.5000 153.7500 Du        
  34372 ****       136.0000 161.5000 154.0000 Du        
  34373 ****       136.0000 161.5000 154.2500 Du        
  34374 ****       136.0000 161.5000 154.5000 Du        
  34375 ****       136.0000 161.7500 152.5000 Du        
  34376 ****       136.0000 161.7500 152.7500 Du        
  34377 ****       136.0000 161.7500 153.0000 Du        
  34378 ****       136.0000 161.7500 153.2500 Du        
  34379 ****       136.0000 161.7500 153.5000 Du        
  34380 ****       136.0000 161.7500 153.7500 Du        
  34381 ****       136.0000 161.7500 154.0000 Du        
  34382 ****       136.0000 161.7500 154.2500 Du        
  34383 ****       136.0000 161.7500 154.5000 Du        
  34384 ****       136.0000 162.0000 152.5000 Du        
  34385 ****       136.0000 162.0000 152.7500 Du        
  34386 ****       136.0000 162.0000 153.0000 Du        
  34387 ****       136.0000 162.0000 153.2500 Du        
  34388 ****       136.0000 162.0000 153.5000 Du        
  34389 ****       136.0000 162.0000 153.7500 Du        
  34390 ****       136.0000 162.0000 154.0000 Du        
  34391 ****       136.0000 162.0000 154.2500 Du        
  34392 ****       136.0000 162.0000 154.5000 Du        
  34393 ****       136.0000 162.0000 154.7500 Du        
  34394 ****       136.0000 162.2500 152.7500 Du        
  34395 ****       136.0000 162.2500 153.0000 Du        
  34396 ****       136.0000 162.2500 153.2500 Du        
  34397 ****       136.0000 162.2500 153.5000 Du        
  34398 ****       136.0000 162.2500 153.7500 Du        
  34399 ****       136.0000 162.2500 154.0000 Du        
  34400 ****       136.0000 162.2500 154.2500 Du        
  34401 ****       136.0000 162.2500 154.5000 Du        
  34402 ****       136.0000 162.5000 152.7500 Du        
  34403 ****       136.0000 162.5000 153.0000 Du        
  34404 ****       136.0000 162.5000 153.2500 Du        
  34405 ****       136.0000 162.5000 153.5000 Du        
  34406 ****       136.0000 162.5000 153.7500 Du        
  34407 ****       136.0000 162.5000 154.0000 Du        
  34408 ****       136.0000 162.5000 154.2500 Du        
  34409 ****       136.0000 162.7500 152.7500 Du        
  34410 ****       136.0000 162.7500 153.0000 Du        
  34411 ****       136.0000 162.7500 153.2500 Du        
  34412 ****       136.0000 162.7500 153.5000 Du        
  34413 ****       136.0000 162.7500 153.7500 Du        
  34414 ****       136.0000 162.7500 154.0000 Du        
  34415 ****       136.0000 162.7500 154.2500 Du        
  34416 ****       136.0000 163.0000 152.7500 Du        
  34417 ****       136.0000 163.0000 153.0000 Du        
  34418 ****       136.0000 163.0000 153.2500 Du        
  34419 ****       136.0000 163.0000 153.5000 Du        
  34420 ****       136.0000 163.0000 153.7500 Du        
  34421 ****       136.0000 163.0000 154.0000 Du        
  34422 ****       136.0000 163.2500 153.0000 Du        
  34423 ****       136.0000 163.2500 153.2500 Du        
  34424 ****       136.0000 163.2500 153.5000 Du        
  34425 ****       136.0000 163.2500 153.7500 Du        
  34426 ****       136.2500 126.5000  96.7500 Du        
  34427 ****       136.2500 126.5000  97.0000 Du        
  34428 ****       136.2500 126.5000  97.2500 Du        
  34429 ****       136.2500 126.5000 102.2500 Du        
  34430 ****       136.2500 126.5000 102.5000 Du        
  34431 ****       136.2500 126.7500  95.2500 Du        
  34432 ****       136.2500 126.7500  96.7500 Du        
  34433 ****       136.2500 126.7500  97.0000 Du        
  34434 ****       136.2500 126.7500  97.2500 Du        
  34435 ****       136.2500 126.7500  97.5000 Du        
  34436 ****       136.2500 126.7500 102.2500 Du        
  34437 ****       136.2500 126.7500 102.5000 Du        
  34438 ****       136.2500 126.7500 102.7500 Du        
  34439 ****       136.2500 126.7500 103.0000 Du        
  34440 ****       136.2500 127.0000  95.7500 Du        
  34441 ****       136.2500 127.0000  96.0000 Du        
  34442 ****       136.2500 127.0000  96.7500 Du        
  34443 ****       136.2500 127.0000  97.0000 Du        
  34444 ****       136.2500 127.0000  97.2500 Du        
  34445 ****       136.2500 127.0000  97.5000 Du        
  34446 ****       136.2500 127.0000 102.5000 Du        
  34447 ****       136.2500 127.0000 102.7500 Du        
  34448 ****       136.2500 127.0000 103.0000 Du        
  34449 ****       136.2500 127.2500  96.0000 Du        
  34450 ****       136.2500 127.2500  96.7500 Du        
  34451 ****       136.2500 127.2500  97.0000 Du        
  34452 ****       136.2500 127.2500  97.2500 Du        
  34453 ****       136.2500 127.2500  97.5000 Du        
  34454 ****       136.2500 127.5000  96.0000 Du        
  34455 ****       136.2500 127.5000  96.7500 Du        
  34456 ****       136.2500 127.5000  97.0000 Du        
  34457 ****       136.2500 127.5000  97.2500 Du        
  34458 ****       136.2500 127.5000  97.5000 Du        
  34459 ****       136.2500 127.7500  96.7500 Du        
  34460 ****       136.2500 127.7500  97.0000 Du        
  34461 ****       136.2500 127.7500  97.2500 Du        
  34462 ****       136.2500 129.0000 150.0000 Du        
  34463 ****       136.2500 129.0000 150.2500 Du        
  34464 ****       136.2500 129.0000 150.5000 Du        
  34465 ****       136.2500 129.0000 150.7500 Du        
  34466 ****       136.2500 129.2500 150.0000 Du        
  34467 ****       136.2500 129.2500 150.2500 Du        
  34468 ****       136.2500 129.2500 150.5000 Du        
  34469 ****       136.2500 129.2500 150.7500 Du        
  34470 ****       136.2500 129.2500 151.0000 Du        
  34471 ****       136.2500 129.5000 150.2500 Du        
  34472 ****       136.2500 129.5000 150.5000 Du        
  34473 ****       136.2500 129.5000 150.7500 Du        
  34474 ****       136.2500 129.5000 151.0000 Du        
  34475 ****       136.2500 129.7500 150.2500 Du        
  34476 ****       136.2500 129.7500 150.5000 Du        
  34477 ****       136.2500 129.7500 150.7500 Du        
  34478 ****       136.2500 129.7500 151.0000 Du        
  34479 ****       136.2500 130.0000 150.2500 Du        
  34480 ****       136.2500 130.0000 150.5000 Du        
  34481 ****       136.2500 130.0000 150.7500 Du        
  34482 ****       136.2500 130.0000 151.0000 Du        
  34483 ****       136.2500 130.2500 150.5000 Du        
  34484 ****       136.2500 130.2500 150.7500 Du        
  34485 ****       136.2500 133.7500 151.7500 Du        
  34486 ****       136.2500 133.7500 152.0000 Du        
  34487 ****       136.2500 133.7500 152.2500 Du        
  34488 ****       136.2500 134.0000 103.2500 Du        
  34489 ****       136.2500 134.0000 103.5000 Du        
  34490 ****       136.2500 134.0000 152.0000 Du        
  34491 ****       136.2500 134.0000 152.2500 Du        
  34492 ****       136.2500 134.0000 152.5000 Du        
  34493 ****       136.2500 134.0000 158.0000 Du        
  34494 ****       136.2500 134.0000 158.2500 Du        
  34495 ****       136.2500 134.2500 103.2500 Du        
  34496 ****       136.2500 134.2500 103.5000 Du        
  34497 ****       136.2500 134.2500 103.7500 Du        
  34498 ****       136.2500 134.2500 104.0000 Du        
  34499 ****       136.2500 134.2500 152.5000 Du        
  34500 ****       136.2500 134.5000 103.2500 Du        
  34501 ****       136.2500 134.5000 103.5000 Du        
  34502 ****       136.2500 134.5000 103.7500 Du        
  34503 ****       136.2500 134.5000 104.0000 Du        
  34504 ****       136.2500 134.5000 104.2500 Du        
  34505 ****       136.2500 134.7500 103.2500 Du        
  34506 ****       136.2500 134.7500 103.5000 Du        
  34507 ****       136.2500 134.7500 103.7500 Du        
  34508 ****       136.2500 134.7500 104.0000 Du        
  34509 ****       136.2500 134.7500 104.2500 Du        
  34510 ****       136.2500 134.7500 104.5000 Du        
  34511 ****       136.2500 134.7500 153.0000 Du        
  34512 ****       136.2500 135.0000 103.2500 Du        
  34513 ****       136.2500 135.0000 103.5000 Du        
  34514 ****       136.2500 135.0000 103.7500 Du        
  34515 ****       136.2500 135.0000 104.0000 Du        
  34516 ****       136.2500 135.0000 104.2500 Du        
  34517 ****       136.2500 135.0000 104.5000 Du        
  34518 ****       136.2500 135.2500 103.5000 Du        
  34519 ****       136.2500 135.2500 103.7500 Du        
  34520 ****       136.2500 135.2500 104.0000 Du        
  34521 ****       136.2500 135.2500 104.2500 Du        
  34522 ****       136.2500 135.5000 103.5000 Du        
  34523 ****       136.2500 135.5000 103.7500 Du        
  34524 ****       136.2500 135.5000 104.0000 Du        
  34525 ****       136.2500 135.5000 104.2500 Du        
  34526 ****       136.2500 135.7500 103.7500 Du        
  34527 ****       136.2500 135.7500 104.0000 Du        
  34528 ****       136.2500 138.0000 103.7500 Du        
  34529 ****       136.2500 138.2500 103.5000 Du        
  34530 ****       136.2500 138.2500 103.7500 Du        
  34531 ****       136.2500 138.2500 104.0000 Du        
  34532 ****       136.2500 138.5000 103.2500 Du        
  34533 ****       136.2500 138.5000 103.5000 Du        
  34534 ****       136.2500 138.5000 103.7500 Du        
  34535 ****       136.2500 138.5000 104.0000 Du        
  34536 ****       136.2500 138.5000 104.2500 Du        
  34537 ****       136.2500 138.7500  92.5000 Du        
  34538 ****       136.2500 138.7500  92.7500 Du        
  34539 ****       136.2500 138.7500 103.2500 Du        
  34540 ****       136.2500 138.7500 103.5000 Du        
  34541 ****       136.2500 138.7500 103.7500 Du        
  34542 ****       136.2500 138.7500 104.0000 Du        
  34543 ****       136.2500 138.7500 104.2500 Du        
  34544 ****       136.2500 139.0000  92.0000 Du        
  34545 ****       136.2500 139.0000  92.2500 Du        
  34546 ****       136.2500 139.0000  92.5000 Du        
  34547 ****       136.2500 139.0000  92.7500 Du        
  34548 ****       136.2500 139.0000  93.0000 Du        
  34549 ****       136.2500 139.2500  92.5000 Du        
  34550 ****       136.2500 139.2500  92.7500 Du        
  34551 ****       136.2500 139.2500  93.0000 Du        
  34552 ****       136.2500 140.7500  94.2500 Du        
  34553 ****       136.2500 140.7500  94.5000 Du        
  34554 ****       136.2500 140.7500  94.7500 Du        
  34555 ****       136.2500 140.7500  95.0000 Du        
  34556 ****       136.2500 140.7500  95.2500 Du        
  34557 ****       136.2500 141.0000  94.0000 Du        
  34558 ****       136.2500 141.0000  94.2500 Du        
  34559 ****       136.2500 141.0000  94.5000 Du        
  34560 ****       136.2500 141.0000  94.7500 Du        
  34561 ****       136.2500 141.0000  95.0000 Du        
  34562 ****       136.2500 141.0000  95.2500 Du        
  34563 ****       136.2500 141.2500  94.0000 Du        
  34564 ****       136.2500 141.2500  94.2500 Du        
  34565 ****       136.2500 141.2500  94.5000 Du        
  34566 ****       136.2500 141.2500  94.7500 Du        
  34567 ****       136.2500 141.2500  95.0000 Du        
  34568 ****       136.2500 141.2500  95.2500 Du        
  34569 ****       136.2500 141.5000  94.0000 Du        
  34570 ****       136.2500 141.5000  94.2500 Du        
  34571 ****       136.2500 141.5000  94.5000 Du        
  34572 ****       136.2500 141.5000  94.7500 Du        
  34573 ****       136.2500 141.5000  95.0000 Du        
  34574 ****       136.2500 141.7500  94.0000 Du        
  34575 ****       136.2500 141.7500  94.2500 Du        
  34576 ****       136.2500 141.7500  94.5000 Du        
  34577 ****       136.2500 141.7500  94.7500 Du        
  34578 ****       136.2500 142.0000  93.7500 Du        
  34579 ****       136.2500 142.0000  94.0000 Du        
  34580 ****       136.2500 142.0000  94.2500 Du        
  34581 ****       136.2500 142.0000  94.5000 Du        
  34582 ****       136.2500 142.2500  94.0000 Du        
  34583 ****       136.2500 142.2500  94.2500 Du        
  34584 ****       136.2500 142.5000  93.5000 Du        
  34585 ****       136.2500 142.5000  93.7500 Du        
  34586 ****       136.2500 142.5000  94.0000 Du        
  34587 ****       136.2500 142.5000  94.2500 Du        
  34588 ****       136.2500 142.7500  93.5000 Du        
  34589 ****       136.2500 142.7500  93.7500 Du        
  34590 ****       136.2500 142.7500  94.0000 Du        
  34591 ****       136.2500 143.0000  93.2500 Du        
  34592 ****       136.2500 143.0000  93.5000 Du        
  34593 ****       136.2500 143.0000  93.7500 Du        
  34594 ****       136.2500 143.2500  93.0000 Du        
  34595 ****       136.2500 143.2500  93.2500 Du        
  34596 ****       136.2500 143.2500  93.5000 Du        
  34597 ****       136.2500 143.2500 130.0000 Du        
  34598 ****       136.2500 143.5000  93.0000 Du        
  34599 ****       136.2500 143.5000 130.0000 Du        
  34600 ****       136.2500 143.5000 130.2500 Du        
  34601 ****       136.2500 143.5000 130.5000 Du        
  34602 ****       136.2500 143.7500  92.7500 Du        
  34603 ****       136.2500 143.7500 129.5000 Du        
  34604 ****       136.2500 143.7500 129.7500 Du        
  34605 ****       136.2500 143.7500 130.0000 Du        
  34606 ****       136.2500 143.7500 130.2500 Du        
  34607 ****       136.2500 143.7500 130.5000 Du        
  34608 ****       136.2500 143.7500 130.7500 Du        
  34609 ****       136.2500 144.0000  92.5000 Du        
  34610 ****       136.2500 144.0000  92.7500 Du        
  34611 ****       136.2500 144.0000 129.5000 Du        
  34612 ****       136.2500 144.0000 129.7500 Du        
  34613 ****       136.2500 144.0000 130.0000 Du        
  34614 ****       136.2500 144.0000 130.2500 Du        
  34615 ****       136.2500 144.0000 130.5000 Du        
  34616 ****       136.2500 144.0000 130.7500 Du        
  34617 ****       136.2500 144.0000 131.0000 Du        
  34618 ****       136.2500 144.2500  92.5000 Du        
  34619 ****       136.2500 144.2500 130.2500 Du        
  34620 ****       136.2500 144.2500 130.5000 Du        
  34621 ****       136.2500 144.2500 130.7500 Du        
  34622 ****       136.2500 144.2500 131.0000 Du        
  34623 ****       136.2500 147.7500 120.2500 Du        
  34624 ****       136.2500 148.0000 119.0000 Du        
  34625 ****       136.2500 148.0000 119.2500 Du        
  34626 ****       136.2500 148.0000 119.5000 Du        
  34627 ****       136.2500 148.0000 119.7500 Du        
  34628 ****       136.2500 148.0000 120.0000 Du        
  34629 ****       136.2500 148.0000 120.2500 Du        
  34630 ****       136.2500 148.2500 118.7500 Du        
  34631 ****       136.2500 148.2500 119.0000 Du        
  34632 ****       136.2500 148.2500 119.2500 Du        
  34633 ****       136.2500 148.2500 119.5000 Du        
  34634 ****       136.2500 148.2500 119.7500 Du        
  34635 ****       136.2500 148.2500 120.0000 Du        
  34636 ****       136.2500 148.5000 118.7500 Du        
  34637 ****       136.2500 148.5000 119.0000 Du        
  34638 ****       136.2500 148.5000 119.2500 Du        
  34639 ****       136.2500 148.7500 118.7500 Du        
  34640 ****       136.2500 148.7500 119.0000 Du        
  34641 ****       136.2500 148.7500 119.2500 Du        
  34642 ****       136.2500 152.5000 106.5000 Du        
  34643 ****       136.2500 152.5000 106.7500 Du        
  34644 ****       136.2500 152.5000 107.0000 Du        
  34645 ****       136.2500 152.5000 107.2500 Du        
  34646 ****       136.2500 152.7500 106.5000 Du        
  34647 ****       136.2500 152.7500 106.7500 Du        
  34648 ****       136.2500 152.7500 107.0000 Du        
  34649 ****       136.2500 152.7500 107.2500 Du        
  34650 ****       136.2500 152.7500 107.5000 Du        
  34651 ****       136.2500 152.7500 107.7500 Du        
  34652 ****       136.2500 152.7500 108.0000 Du        
  34653 ****       136.2500 153.0000 106.5000 Du        
  34654 ****       136.2500 153.0000 106.7500 Du        
  34655 ****       136.2500 153.0000 107.0000 Du        
  34656 ****       136.2500 153.0000 107.2500 Du        
  34657 ****       136.2500 153.0000 107.5000 Du        
  34658 ****       136.2500 153.0000 107.7500 Du        
  34659 ****       136.2500 153.0000 108.0000 Du        
  34660 ****       136.2500 153.0000 108.2500 Du        
  34661 ****       136.2500 153.2500 106.5000 Du        
  34662 ****       136.2500 153.2500 106.7500 Du        
  34663 ****       136.2500 153.2500 107.0000 Du        
  34664 ****       136.2500 153.2500 107.2500 Du        
  34665 ****       136.2500 153.2500 107.5000 Du        
  34666 ****       136.2500 153.2500 107.7500 Du        
  34667 ****       136.2500 153.2500 108.0000 Du        
  34668 ****       136.2500 153.2500 108.2500 Du        
  34669 ****       136.2500 153.2500 108.5000 Du        
  34670 ****       136.2500 153.2500 108.7500 Du        
  34671 ****       136.2500 153.5000 106.5000 Du        
  34672 ****       136.2500 153.5000 106.7500 Du        
  34673 ****       136.2500 153.5000 107.0000 Du        
  34674 ****       136.2500 153.5000 107.2500 Du        
  34675 ****       136.2500 153.5000 107.5000 Du        
  34676 ****       136.2500 153.5000 107.7500 Du        
  34677 ****       136.2500 153.5000 108.0000 Du        
  34678 ****       136.2500 153.5000 108.2500 Du        
  34679 ****       136.2500 153.5000 108.5000 Du        
  34680 ****       136.2500 153.7500 106.5000 Du        
  34681 ****       136.2500 153.7500 106.7500 Du        
  34682 ****       136.2500 153.7500 107.0000 Du        
  34683 ****       136.2500 153.7500 107.2500 Du        
  34684 ****       136.2500 153.7500 107.5000 Du        
  34685 ****       136.2500 153.7500 107.7500 Du        
  34686 ****       136.2500 153.7500 108.0000 Du        
  34687 ****       136.2500 153.7500 108.2500 Du        
  34688 ****       136.2500 154.0000 106.7500 Du        
  34689 ****       136.2500 154.0000 107.0000 Du        
  34690 ****       136.2500 154.0000 107.2500 Du        
  34691 ****       136.2500 154.0000 107.5000 Du        
  34692 ****       136.2500 154.0000 107.7500 Du        
  34693 ****       136.2500 154.0000 108.0000 Du        
  34694 ****       136.2500 154.0000 108.2500 Du        
  34695 ****       136.2500 154.2500 106.7500 Du        
  34696 ****       136.2500 154.2500 107.0000 Du        
  34697 ****       136.2500 154.2500 107.2500 Du        
  34698 ****       136.2500 154.2500 107.5000 Du        
  34699 ****       136.2500 154.2500 107.7500 Du        
  34700 ****       136.2500 156.2500 144.5000 Du        
  34701 ****       136.2500 156.5000 144.5000 Du        
  34702 ****       136.2500 156.7500 144.5000 Du        
  34703 ****       136.2500 157.0000 144.5000 Du        
  34704 ****       136.2500 160.2500 152.7500 Du        
  34705 ****       136.2500 160.2500 153.0000 Du        
  34706 ****       136.2500 160.2500 153.2500 Du        
  34707 ****       136.2500 160.2500 153.5000 Du        
  34708 ****       136.2500 160.5000 152.7500 Du        
  34709 ****       136.2500 160.5000 153.0000 Du        
  34710 ****       136.2500 160.5000 153.2500 Du        
  34711 ****       136.2500 160.5000 153.5000 Du        
  34712 ****       136.2500 160.5000 153.7500 Du        
  34713 ****       136.2500 160.5000 154.0000 Du        
  34714 ****       136.2500 160.5000 154.2500 Du        
  34715 ****       136.2500 160.7500 152.7500 Du        
  34716 ****       136.2500 160.7500 153.0000 Du        
  34717 ****       136.2500 160.7500 153.2500 Du        
  34718 ****       136.2500 160.7500 153.5000 Du        
  34719 ****       136.2500 160.7500 153.7500 Du        
  34720 ****       136.2500 160.7500 154.0000 Du        
  34721 ****       136.2500 160.7500 154.2500 Du        
  34722 ****       136.2500 160.7500 154.5000 Du        
  34723 ****       136.2500 161.0000 152.5000 Du        
  34724 ****       136.2500 161.0000 152.7500 Du        
  34725 ****       136.2500 161.0000 153.0000 Du        
  34726 ****       136.2500 161.0000 153.2500 Du        
  34727 ****       136.2500 161.0000 153.5000 Du        
  34728 ****       136.2500 161.0000 153.7500 Du        
  34729 ****       136.2500 161.0000 154.0000 Du        
  34730 ****       136.2500 161.0000 154.2500 Du        
  34731 ****       136.2500 161.0000 154.5000 Du        
  34732 ****       136.2500 161.2500 152.5000 Du        
  34733 ****       136.2500 161.2500 152.7500 Du        
  34734 ****       136.2500 161.2500 153.0000 Du        
  34735 ****       136.2500 161.2500 153.2500 Du        
  34736 ****       136.2500 161.2500 153.5000 Du        
  34737 ****       136.2500 161.2500 153.7500 Du        
  34738 ****       136.2500 161.2500 154.0000 Du        
  34739 ****       136.2500 161.2500 154.2500 Du        
  34740 ****       136.2500 161.2500 154.5000 Du        
  34741 ****       136.2500 161.2500 154.7500 Du        
  34742 ****       136.2500 161.5000 152.7500 Du        
  34743 ****       136.2500 161.5000 153.0000 Du        
  34744 ****       136.2500 161.5000 153.2500 Du        
  34745 ****       136.2500 161.5000 153.5000 Du        
  34746 ****       136.2500 161.5000 153.7500 Du        
  34747 ****       136.2500 161.5000 154.0000 Du        
  34748 ****       136.2500 161.5000 154.2500 Du        
  34749 ****       136.2500 161.5000 154.5000 Du        
  34750 ****       136.2500 161.5000 154.7500 Du        
  34751 ****       136.2500 161.7500 152.7500 Du        
  34752 ****       136.2500 161.7500 153.0000 Du        
  34753 ****       136.2500 161.7500 153.2500 Du        
  34754 ****       136.2500 161.7500 153.5000 Du        
  34755 ****       136.2500 161.7500 153.7500 Du        
  34756 ****       136.2500 161.7500 154.0000 Du        
  34757 ****       136.2500 161.7500 154.2500 Du        
  34758 ****       136.2500 161.7500 154.5000 Du        
  34759 ****       136.2500 161.7500 154.7500 Du        
  34760 ****       136.2500 162.0000 152.7500 Du        
  34761 ****       136.2500 162.0000 153.0000 Du        
  34762 ****       136.2500 162.0000 153.2500 Du        
  34763 ****       136.2500 162.0000 153.5000 Du        
  34764 ****       136.2500 162.0000 153.7500 Du        
  34765 ****       136.2500 162.0000 154.0000 Du        
  34766 ****       136.2500 162.0000 154.2500 Du        
  34767 ****       136.2500 162.0000 154.5000 Du        
  34768 ****       136.2500 162.2500 152.7500 Du        
  34769 ****       136.2500 162.2500 153.0000 Du        
  34770 ****       136.2500 162.2500 153.2500 Du        
  34771 ****       136.2500 162.2500 153.5000 Du        
  34772 ****       136.2500 162.2500 153.7500 Du        
  34773 ****       136.2500 162.2500 154.0000 Du        
  34774 ****       136.2500 162.2500 154.2500 Du        
  34775 ****       136.2500 162.5000 152.7500 Du        
  34776 ****       136.2500 162.5000 153.0000 Du        
  34777 ****       136.2500 162.5000 153.2500 Du        
  34778 ****       136.2500 162.5000 153.5000 Du        
  34779 ****       136.2500 162.5000 153.7500 Du        
  34780 ****       136.2500 162.5000 154.0000 Du        
  34781 ****       136.2500 162.7500 152.7500 Du        
  34782 ****       136.2500 162.7500 153.0000 Du        
  34783 ****       136.2500 162.7500 153.2500 Du        
  34784 ****       136.2500 162.7500 153.5000 Du        
  34785 ****       136.2500 162.7500 153.7500 Du        
  34786 ****       136.2500 163.0000 152.7500 Du        
  34787 ****       136.2500 163.0000 153.0000 Du        
  34788 ****       136.2500 163.0000 153.2500 Du        
  34789 ****       136.2500 163.0000 153.5000 Du        
  34790 ****       136.5000 126.0000 101.7500 Du        
  34791 ****       136.5000 126.0000 102.0000 Du        
  34792 ****       136.5000 126.2500 101.7500 Du        
  34793 ****       136.5000 126.2500 102.0000 Du        
  34794 ****       136.5000 126.2500 102.2500 Du        
  34795 ****       136.5000 126.2500 102.5000 Du        
  34796 ****       136.5000 126.5000  97.0000 Du        
  34797 ****       136.5000 126.5000  97.2500 Du        
  34798 ****       136.5000 126.5000 102.0000 Du        
  34799 ****       136.5000 126.5000 102.2500 Du        
  34800 ****       136.5000 126.5000 102.5000 Du        
  34801 ****       136.5000 126.5000 102.7500 Du        
  34802 ****       136.5000 126.5000 103.0000 Du        
  34803 ****       136.5000 126.7500  96.7500 Du        
  34804 ****       136.5000 126.7500  97.0000 Du        
  34805 ****       136.5000 126.7500  97.2500 Du        
  34806 ****       136.5000 126.7500 102.0000 Du        
  34807 ****       136.5000 126.7500 102.2500 Du        
  34808 ****       136.5000 126.7500 102.5000 Du        
  34809 ****       136.5000 126.7500 102.7500 Du        
  34810 ****       136.5000 126.7500 103.0000 Du        
  34811 ****       136.5000 126.7500 103.2500 Du        
  34812 ****       136.5000 127.0000  96.0000 Du        
  34813 ****       136.5000 127.0000  96.7500 Du        
  34814 ****       136.5000 127.0000  97.0000 Du        
  34815 ****       136.5000 127.0000  97.2500 Du        
  34816 ****       136.5000 127.0000  97.5000 Du        
  34817 ****       136.5000 127.0000 102.2500 Du        
  34818 ****       136.5000 127.0000 102.5000 Du        
  34819 ****       136.5000 127.0000 102.7500 Du        
  34820 ****       136.5000 127.0000 103.0000 Du        
  34821 ****       136.5000 127.0000 103.2500 Du        
  34822 ****       136.5000 127.2500  96.0000 Du        
  34823 ****       136.5000 127.2500  96.7500 Du        
  34824 ****       136.5000 127.2500  97.0000 Du        
  34825 ****       136.5000 127.2500  97.2500 Du        
  34826 ****       136.5000 127.2500  97.5000 Du        
  34827 ****       136.5000 127.2500 102.5000 Du        
  34828 ****       136.5000 127.2500 102.7500 Du        
  34829 ****       136.5000 127.5000  96.0000 Du        
  34830 ****       136.5000 127.5000  96.7500 Du        
  34831 ****       136.5000 127.5000  97.0000 Du        
  34832 ****       136.5000 127.5000  97.2500 Du        
  34833 ****       136.5000 127.5000  97.5000 Du        
  34834 ****       136.5000 127.7500  96.7500 Du        
  34835 ****       136.5000 127.7500  97.0000 Du        
  34836 ****       136.5000 127.7500  97.2500 Du        
  34837 ****       136.5000 128.7500 149.5000 Du        
  34838 ****       136.5000 128.7500 149.7500 Du        
  34839 ****       136.5000 128.7500 150.0000 Du        
  34840 ****       136.5000 129.0000 149.5000 Du        
  34841 ****       136.5000 129.0000 149.7500 Du        
  34842 ****       136.5000 129.0000 150.0000 Du        
  34843 ****       136.5000 129.0000 150.2500 Du        
  34844 ****       136.5000 129.0000 150.5000 Du        
  34845 ****       136.5000 129.2500 149.5000 Du        
  34846 ****       136.5000 129.2500 149.7500 Du        
  34847 ****       136.5000 129.2500 150.0000 Du        
  34848 ****       136.5000 129.2500 150.2500 Du        
  34849 ****       136.5000 129.2500 150.5000 Du        
  34850 ****       136.5000 129.2500 150.7500 Du        
  34851 ****       136.5000 129.5000 150.2500 Du        
  34852 ****       136.5000 129.5000 150.5000 Du        
  34853 ****       136.5000 129.7500 150.5000 Du        
  34854 ****       136.5000 133.5000 151.7500 Du        
  34855 ****       136.5000 133.5000 152.0000 Du        
  34856 ****       136.5000 133.7500 151.5000 Du        
  34857 ****       136.5000 133.7500 151.7500 Du        
  34858 ****       136.5000 133.7500 152.0000 Du        
  34859 ****       136.5000 133.7500 152.2500 Du        
  34860 ****       136.5000 133.7500 152.5000 Du        
  34861 ****       136.5000 134.0000 103.0000 Du        
  34862 ****       136.5000 134.0000 103.2500 Du        
  34863 ****       136.5000 134.0000 103.5000 Du        
  34864 ****       136.5000 134.0000 151.7500 Du        
  34865 ****       136.5000 134.0000 152.0000 Du        
  34866 ****       136.5000 134.0000 152.2500 Du        
  34867 ****       136.5000 134.0000 152.5000 Du        
  34868 ****       136.5000 134.0000 152.7500 Du        
  34869 ****       136.5000 134.2500 103.0000 Du        
  34870 ****       136.5000 134.2500 103.2500 Du        
  34871 ****       136.5000 134.2500 103.5000 Du        
  34872 ****       136.5000 134.2500 103.7500 Du        
  34873 ****       136.5000 134.2500 104.0000 Du        
  34874 ****       136.5000 134.2500 151.7500 Du        
  34875 ****       136.5000 134.2500 152.0000 Du        
  34876 ****       136.5000 134.2500 152.2500 Du        
  34877 ****       136.5000 134.2500 152.5000 Du        
  34878 ****       136.5000 134.2500 152.7500 Du        
  34879 ****       136.5000 134.2500 153.0000 Du        
  34880 ****       136.5000 134.5000 103.0000 Du        
  34881 ****       136.5000 134.5000 103.2500 Du        
  34882 ****       136.5000 134.5000 103.5000 Du        
  34883 ****       136.5000 134.5000 103.7500 Du        
  34884 ****       136.5000 134.5000 104.0000 Du        
  34885 ****       136.5000 134.5000 104.2500 Du        
  34886 ****       136.5000 134.5000 151.7500 Du        
  34887 ****       136.5000 134.5000 152.0000 Du        
  34888 ****       136.5000 134.5000 152.2500 Du        
  34889 ****       136.5000 134.5000 152.5000 Du        
  34890 ****       136.5000 134.5000 152.7500 Du        
  34891 ****       136.5000 134.5000 153.0000 Du        
  34892 ****       136.5000 134.5000 153.2500 Du        
  34893 ****       136.5000 134.7500 103.0000 Du        
  34894 ****       136.5000 134.7500 103.2500 Du        
  34895 ****       136.5000 134.7500 103.5000 Du        
  34896 ****       136.5000 134.7500 103.7500 Du        
  34897 ****       136.5000 134.7500 104.0000 Du        
  34898 ****       136.5000 134.7500 104.2500 Du        
  34899 ****       136.5000 134.7500 151.7500 Du        
  34900 ****       136.5000 134.7500 152.0000 Du        
  34901 ****       136.5000 134.7500 152.2500 Du        
  34902 ****       136.5000 134.7500 152.5000 Du        
  34903 ****       136.5000 134.7500 152.7500 Du        
  34904 ****       136.5000 134.7500 153.0000 Du        
  34905 ****       136.5000 134.7500 153.2500 Du        
  34906 ****       136.5000 134.7500 153.5000 Du        
  34907 ****       136.5000 135.0000 103.2500 Du        
  34908 ****       136.5000 135.0000 103.5000 Du        
  34909 ****       136.5000 135.0000 103.7500 Du        
  34910 ****       136.5000 135.0000 104.0000 Du        
  34911 ****       136.5000 135.0000 152.2500 Du        
  34912 ****       136.5000 135.0000 152.5000 Du        
  34913 ****       136.5000 135.0000 152.7500 Du        
  34914 ****       136.5000 135.0000 153.0000 Du        
  34915 ****       136.5000 135.0000 153.2500 Du        
  34916 ****       136.5000 135.0000 153.5000 Du        
  34917 ****       136.5000 135.2500 103.5000 Du        
  34918 ****       136.5000 135.2500 103.7500 Du        
  34919 ****       136.5000 135.2500 104.0000 Du        
  34920 ****       136.5000 135.2500 152.7500 Du        
  34921 ****       136.5000 135.2500 153.0000 Du        
  34922 ****       136.5000 138.7500  91.5000 Du        
  34923 ****       136.5000 138.7500  91.7500 Du        
  34924 ****       136.5000 138.7500  92.0000 Du        
  34925 ****       136.5000 138.7500  92.2500 Du        
  34926 ****       136.5000 138.7500  92.5000 Du        
  34927 ****       136.5000 138.7500  92.7500 Du        
  34928 ****       136.5000 139.0000  91.7500 Du        
  34929 ****       136.5000 139.0000  92.0000 Du        
  34930 ****       136.5000 139.0000  92.2500 Du        
  34931 ****       136.5000 139.0000  92.5000 Du        
  34932 ****       136.5000 139.0000  92.7500 Du        
  34933 ****       136.5000 139.0000  93.0000 Du        
  34934 ****       136.5000 139.2500  91.7500 Du        
  34935 ****       136.5000 139.2500  92.0000 Du        
  34936 ****       136.5000 139.2500  92.2500 Du        
  34937 ****       136.5000 139.2500  92.5000 Du        
  34938 ****       136.5000 139.2500  92.7500 Du        
  34939 ****       136.5000 139.2500  93.0000 Du        
  34940 ****       136.5000 140.7500  94.0000 Du        
  34941 ****       136.5000 140.7500  94.2500 Du        
  34942 ****       136.5000 140.7500  94.5000 Du        
  34943 ****       136.5000 140.7500  94.7500 Du        
  34944 ****       136.5000 140.7500  95.0000 Du        
  34945 ****       136.5000 140.7500  95.2500 Du        
  34946 ****       136.5000 141.0000  94.0000 Du        
  34947 ****       136.5000 141.0000  94.2500 Du        
  34948 ****       136.5000 141.0000  94.5000 Du        
  34949 ****       136.5000 141.0000  94.7500 Du        
  34950 ****       136.5000 141.0000  95.0000 Du        
  34951 ****       136.5000 141.0000  95.2500 Du        
  34952 ****       136.5000 141.0000  95.5000 Du        
  34953 ****       136.5000 141.2500  93.7500 Du        
  34954 ****       136.5000 141.2500  94.0000 Du        
  34955 ****       136.5000 141.2500  94.2500 Du        
  34956 ****       136.5000 141.2500  94.5000 Du        
  34957 ****       136.5000 141.2500  94.7500 Du        
  34958 ****       136.5000 141.2500  95.0000 Du        
  34959 ****       136.5000 141.2500  95.2500 Du        
  34960 ****       136.5000 141.5000  93.7500 Du        
  34961 ****       136.5000 141.5000  94.0000 Du        
  34962 ****       136.5000 141.5000  94.2500 Du        
  34963 ****       136.5000 141.5000  94.5000 Du        
  34964 ****       136.5000 141.5000  94.7500 Du        
  34965 ****       136.5000 141.5000  95.0000 Du        
  34966 ****       136.5000 141.7500  93.7500 Du        
  34967 ****       136.5000 141.7500  94.0000 Du        
  34968 ****       136.5000 141.7500  94.2500 Du        
  34969 ****       136.5000 141.7500  94.5000 Du        
  34970 ****       136.5000 141.7500  94.7500 Du        
  34971 ****       136.5000 141.7500  95.0000 Du        
  34972 ****       136.5000 142.0000  93.5000 Du        
  34973 ****       136.5000 142.0000  93.7500 Du        
  34974 ****       136.5000 142.0000  94.0000 Du        
  34975 ****       136.5000 142.0000  94.2500 Du        
  34976 ****       136.5000 142.0000  94.5000 Du        
  34977 ****       136.5000 142.0000  94.7500 Du        
  34978 ****       136.5000 142.2500  93.5000 Du        
  34979 ****       136.5000 142.2500  93.7500 Du        
  34980 ****       136.5000 142.2500  94.0000 Du        
  34981 ****       136.5000 142.2500  94.2500 Du        
  34982 ****       136.5000 142.2500  94.5000 Du        
  34983 ****       136.5000 142.5000  93.2500 Du        
  34984 ****       136.5000 142.5000  93.5000 Du        
  34985 ****       136.5000 142.5000  93.7500 Du        
  34986 ****       136.5000 142.5000  94.0000 Du        
  34987 ****       136.5000 142.5000  94.2500 Du        
  34988 ****       136.5000 142.7500  93.2500 Du        
  34989 ****       136.5000 142.7500  93.5000 Du        
  34990 ****       136.5000 142.7500  93.7500 Du        
  34991 ****       136.5000 142.7500  94.0000 Du        
  34992 ****       136.5000 143.0000  93.2500 Du        
  34993 ****       136.5000 143.0000  93.5000 Du        
  34994 ****       136.5000 143.0000  93.7500 Du        
  34995 ****       136.5000 143.5000  92.7500 Du        
  34996 ****       136.5000 143.5000  93.0000 Du        
  34997 ****       136.5000 143.5000  93.2500 Du        
  34998 ****       136.5000 143.5000 130.0000 Du        
  34999 ****       136.5000 143.5000 130.2500 Du        
  35000 ****       136.5000 143.5000 130.5000 Du        
  35001 ****       136.5000 143.5000 130.7500 Du        
  35002 ****       136.5000 143.7500  92.5000 Du        
  35003 ****       136.5000 143.7500  92.7500 Du        
  35004 ****       136.5000 143.7500  93.0000 Du        
  35005 ****       136.5000 143.7500 129.7500 Du        
  35006 ****       136.5000 143.7500 130.0000 Du        
  35007 ****       136.5000 143.7500 130.2500 Du        
  35008 ****       136.5000 143.7500 130.5000 Du        
  35009 ****       136.5000 143.7500 130.7500 Du        
  35010 ****       136.5000 143.7500 131.0000 Du        
  35011 ****       136.5000 144.0000  92.5000 Du        
  35012 ****       136.5000 144.0000  92.7500 Du        
  35013 ****       136.5000 144.0000 129.5000 Du        
  35014 ****       136.5000 144.0000 129.7500 Du        
  35015 ****       136.5000 144.0000 130.0000 Du        
  35016 ****       136.5000 144.0000 130.2500 Du        
  35017 ****       136.5000 144.0000 130.5000 Du        
  35018 ****       136.5000 144.0000 130.7500 Du        
  35019 ****       136.5000 144.0000 131.0000 Du        
  35020 ****       136.5000 144.0000 131.2500 Du        
  35021 ****       136.5000 144.2500  92.5000 Du        
  35022 ****       136.5000 144.2500 129.7500 Du        
  35023 ****       136.5000 144.2500 130.0000 Du        
  35024 ****       136.5000 144.2500 130.2500 Du        
  35025 ****       136.5000 144.2500 130.5000 Du        
  35026 ****       136.5000 144.2500 130.7500 Du        
  35027 ****       136.5000 144.2500 131.0000 Du        
  35028 ****       136.5000 144.5000  92.2500 Du        
  35029 ****       136.5000 144.5000  92.5000 Du        
  35030 ****       136.5000 144.7500  92.0000 Du        
  35031 ****       136.5000 145.0000  92.0000 Du        
  35032 ****       136.5000 148.0000 119.2500 Du        
  35033 ****       136.5000 148.2500 119.0000 Du        
  35034 ****       136.5000 148.2500 119.2500 Du        
  35035 ****       136.5000 148.2500 119.5000 Du        
  35036 ****       136.5000 148.2500 119.7500 Du        
  35037 ****       136.5000 148.5000 119.0000 Du        
  35038 ****       136.5000 148.5000 119.2500 Du        
  35039 ****       136.5000 148.7500 119.0000 Du        
  35040 ****       136.5000 152.2500 106.7500 Du        
  35041 ****       136.5000 152.5000 106.2500 Du        
  35042 ****       136.5000 152.5000 106.5000 Du        
  35043 ****       136.5000 152.5000 106.7500 Du        
  35044 ****       136.5000 152.5000 107.0000 Du        
  35045 ****       136.5000 152.5000 107.2500 Du        
  35046 ****       136.5000 152.5000 107.5000 Du        
  35047 ****       136.5000 152.7500 106.2500 Du        
  35048 ****       136.5000 152.7500 106.5000 Du        
  35049 ****       136.5000 152.7500 106.7500 Du        
  35050 ****       136.5000 152.7500 107.0000 Du        
  35051 ****       136.5000 152.7500 107.2500 Du        
  35052 ****       136.5000 152.7500 107.5000 Du        
  35053 ****       136.5000 152.7500 107.7500 Du        
  35054 ****       136.5000 152.7500 108.0000 Du        
  35055 ****       136.5000 153.0000 106.2500 Du        
  35056 ****       136.5000 153.0000 106.5000 Du        
  35057 ****       136.5000 153.0000 106.7500 Du        
  35058 ****       136.5000 153.0000 107.0000 Du        
  35059 ****       136.5000 153.0000 107.2500 Du        
  35060 ****       136.5000 153.0000 107.5000 Du        
  35061 ****       136.5000 153.0000 107.7500 Du        
  35062 ****       136.5000 153.0000 108.0000 Du        
  35063 ****       136.5000 153.0000 108.2500 Du        
  35064 ****       136.5000 153.2500 106.2500 Du        
  35065 ****       136.5000 153.2500 106.5000 Du        
  35066 ****       136.5000 153.2500 106.7500 Du        
  35067 ****       136.5000 153.2500 107.0000 Du        
  35068 ****       136.5000 153.2500 107.2500 Du        
  35069 ****       136.5000 153.2500 107.5000 Du        
  35070 ****       136.5000 153.2500 107.7500 Du        
  35071 ****       136.5000 153.2500 108.0000 Du        
  35072 ****       136.5000 153.2500 108.2500 Du        
  35073 ****       136.5000 153.2500 108.5000 Du        
  35074 ****       136.5000 153.5000 106.2500 Du        
  35075 ****       136.5000 153.5000 106.5000 Du        
  35076 ****       136.5000 153.5000 106.7500 Du        
  35077 ****       136.5000 153.5000 107.0000 Du        
  35078 ****       136.5000 153.5000 107.2500 Du        
  35079 ****       136.5000 153.5000 107.5000 Du        
  35080 ****       136.5000 153.5000 107.7500 Du        
  35081 ****       136.5000 153.5000 108.0000 Du        
  35082 ****       136.5000 153.5000 108.2500 Du        
  35083 ****       136.5000 153.7500 106.2500 Du        
  35084 ****       136.5000 153.7500 106.5000 Du        
  35085 ****       136.5000 153.7500 106.7500 Du        
  35086 ****       136.5000 153.7500 107.0000 Du        
  35087 ****       136.5000 153.7500 107.2500 Du        
  35088 ****       136.5000 153.7500 107.5000 Du        
  35089 ****       136.5000 153.7500 107.7500 Du        
  35090 ****       136.5000 153.7500 108.0000 Du        
  35091 ****       136.5000 153.7500 108.2500 Du        
  35092 ****       136.5000 154.0000 106.2500 Du        
  35093 ****       136.5000 154.0000 106.5000 Du        
  35094 ****       136.5000 154.0000 106.7500 Du        
  35095 ****       136.5000 154.0000 107.0000 Du        
  35096 ****       136.5000 154.0000 107.2500 Du        
  35097 ****       136.5000 154.0000 107.5000 Du        
  35098 ****       136.5000 154.0000 107.7500 Du        
  35099 ****       136.5000 154.0000 108.0000 Du        
  35100 ****       136.5000 154.2500 106.2500 Du        
  35101 ****       136.5000 154.2500 106.5000 Du        
  35102 ****       136.5000 154.2500 106.7500 Du        
  35103 ****       136.5000 154.2500 107.0000 Du        
  35104 ****       136.5000 154.2500 107.2500 Du        
  35105 ****       136.5000 156.2500 144.5000 Du        
  35106 ****       136.5000 156.5000 144.5000 Du        
  35107 ****       136.5000 156.5000 144.7500 Du        
  35108 ****       136.5000 156.7500 144.5000 Du        
  35109 ****       136.5000 156.7500 144.7500 Du        
  35110 ****       136.5000 157.0000 144.5000 Du        
  35111 ****       136.5000 157.0000 144.7500 Du        
  35112 ****       136.5000 157.2500 144.7500 Du        
  35113 ****       136.5000 160.0000 152.7500 Du        
  35114 ****       136.5000 160.0000 153.0000 Du        
  35115 ****       136.5000 160.2500 152.7500 Du        
  35116 ****       136.5000 160.2500 153.0000 Du        
  35117 ****       136.5000 160.2500 153.2500 Du        
  35118 ****       136.5000 160.2500 153.5000 Du        
  35119 ****       136.5000 160.2500 153.7500 Du        
  35120 ****       136.5000 160.2500 154.0000 Du        
  35121 ****       136.5000 160.2500 154.2500 Du        
  35122 ****       136.5000 160.2500 154.5000 Du        
  35123 ****       136.5000 160.5000 152.7500 Du        
  35124 ****       136.5000 160.5000 153.0000 Du        
  35125 ****       136.5000 160.5000 153.2500 Du        
  35126 ****       136.5000 160.5000 153.5000 Du        
  35127 ****       136.5000 160.5000 153.7500 Du        
  35128 ****       136.5000 160.5000 154.0000 Du        
  35129 ****       136.5000 160.5000 154.2500 Du        
  35130 ****       136.5000 160.5000 154.5000 Du        
  35131 ****       136.5000 160.7500 152.7500 Du        
  35132 ****       136.5000 160.7500 153.0000 Du        
  35133 ****       136.5000 160.7500 153.2500 Du        
  35134 ****       136.5000 160.7500 153.5000 Du        
  35135 ****       136.5000 160.7500 153.7500 Du        
  35136 ****       136.5000 160.7500 154.0000 Du        
  35137 ****       136.5000 160.7500 154.2500 Du        
  35138 ****       136.5000 160.7500 154.5000 Du        
  35139 ****       136.5000 160.7500 154.7500 Du        
  35140 ****       136.5000 161.0000 152.7500 Du        
  35141 ****       136.5000 161.0000 153.0000 Du        
  35142 ****       136.5000 161.0000 153.2500 Du        
  35143 ****       136.5000 161.0000 153.5000 Du        
  35144 ****       136.5000 161.0000 153.7500 Du        
  35145 ****       136.5000 161.0000 154.0000 Du        
  35146 ****       136.5000 161.0000 154.2500 Du        
  35147 ****       136.5000 161.0000 154.5000 Du        
  35148 ****       136.5000 161.0000 154.7500 Du        
  35149 ****       136.5000 161.2500 152.5000 Du        
  35150 ****       136.5000 161.2500 152.7500 Du        
  35151 ****       136.5000 161.2500 153.0000 Du        
  35152 ****       136.5000 161.2500 153.2500 Du        
  35153 ****       136.5000 161.2500 153.5000 Du        
  35154 ****       136.5000 161.2500 153.7500 Du        
  35155 ****       136.5000 161.2500 154.0000 Du        
  35156 ****       136.5000 161.2500 154.2500 Du        
  35157 ****       136.5000 161.2500 154.5000 Du        
  35158 ****       136.5000 161.2500 154.7500 Du        
  35159 ****       136.5000 161.2500 155.0000 Du        
  35160 ****       136.5000 161.5000 152.7500 Du        
  35161 ****       136.5000 161.5000 153.0000 Du        
  35162 ****       136.5000 161.5000 153.2500 Du        
  35163 ****       136.5000 161.5000 153.5000 Du        
  35164 ****       136.5000 161.5000 153.7500 Du        
  35165 ****       136.5000 161.5000 154.0000 Du        
  35166 ****       136.5000 161.5000 154.2500 Du        
  35167 ****       136.5000 161.5000 154.5000 Du        
  35168 ****       136.5000 161.5000 154.7500 Du        
  35169 ****       136.5000 161.7500 152.7500 Du        
  35170 ****       136.5000 161.7500 153.0000 Du        
  35171 ****       136.5000 161.7500 153.2500 Du        
  35172 ****       136.5000 161.7500 153.5000 Du        
  35173 ****       136.5000 161.7500 153.7500 Du        
  35174 ****       136.5000 161.7500 154.0000 Du        
  35175 ****       136.5000 161.7500 154.2500 Du        
  35176 ****       136.5000 161.7500 154.5000 Du        
  35177 ****       136.5000 161.7500 154.7500 Du        
  35178 ****       136.5000 162.0000 152.7500 Du        
  35179 ****       136.5000 162.0000 153.0000 Du        
  35180 ****       136.5000 162.0000 153.2500 Du        
  35181 ****       136.5000 162.0000 153.5000 Du        
  35182 ****       136.5000 162.0000 153.7500 Du        
  35183 ****       136.5000 162.0000 154.0000 Du        
  35184 ****       136.5000 162.0000 154.2500 Du        
  35185 ****       136.5000 162.0000 154.5000 Du        
  35186 ****       136.5000 162.2500 152.7500 Du        
  35187 ****       136.5000 162.2500 153.0000 Du        
  35188 ****       136.5000 162.2500 153.2500 Du        
  35189 ****       136.5000 162.2500 153.5000 Du        
  35190 ****       136.5000 162.2500 153.7500 Du        
  35191 ****       136.5000 162.2500 154.0000 Du        
  35192 ****       136.5000 162.5000 152.7500 Du        
  35193 ****       136.5000 162.5000 153.0000 Du        
  35194 ****       136.5000 162.5000 153.2500 Du        
  35195 ****       136.5000 162.5000 153.5000 Du        
  35196 ****       136.5000 162.7500 153.0000 Du        
  35197 ****       136.7500 125.5000 101.5000 Du        
  35198 ****       136.7500 125.5000 101.7500 Du        
  35199 ****       136.7500 125.7500 101.5000 Du        
  35200 ****       136.7500 125.7500 101.7500 Du        
  35201 ****       136.7500 125.7500 102.0000 Du        
  35202 ****       136.7500 126.0000 101.5000 Du        
  35203 ****       136.7500 126.0000 101.7500 Du        
  35204 ****       136.7500 126.0000 102.0000 Du        
  35205 ****       136.7500 126.0000 102.2500 Du        
  35206 ****       136.7500 126.0000 102.5000 Du        
  35207 ****       136.7500 126.2500 101.5000 Du        
  35208 ****       136.7500 126.2500 101.7500 Du        
  35209 ****       136.7500 126.2500 102.0000 Du        
  35210 ****       136.7500 126.2500 102.2500 Du        
  35211 ****       136.7500 126.2500 102.5000 Du        
  35212 ****       136.7500 126.2500 102.7500 Du        
  35213 ****       136.7500 126.2500 103.0000 Du        
  35214 ****       136.7500 126.5000 101.5000 Du        
  35215 ****       136.7500 126.5000 101.7500 Du        
  35216 ****       136.7500 126.5000 102.0000 Du        
  35217 ****       136.7500 126.5000 102.2500 Du        
  35218 ****       136.7500 126.5000 102.5000 Du        
  35219 ****       136.7500 126.5000 102.7500 Du        
  35220 ****       136.7500 126.5000 103.0000 Du        
  35221 ****       136.7500 126.5000 103.2500 Du        
  35222 ****       136.7500 126.5000 103.5000 Du        
  35223 ****       136.7500 126.7500  96.7500 Du        
  35224 ****       136.7500 126.7500  97.0000 Du        
  35225 ****       136.7500 126.7500  97.2500 Du        
  35226 ****       136.7500 126.7500  97.5000 Du        
  35227 ****       136.7500 126.7500 101.7500 Du        
  35228 ****       136.7500 126.7500 102.0000 Du        
  35229 ****       136.7500 126.7500 102.2500 Du        
  35230 ****       136.7500 126.7500 102.5000 Du        
  35231 ****       136.7500 126.7500 102.7500 Du        
  35232 ****       136.7500 126.7500 103.0000 Du        
  35233 ****       136.7500 126.7500 103.2500 Du        
  35234 ****       136.7500 126.7500 103.5000 Du        
  35235 ****       136.7500 126.7500 103.7500 Du        
  35236 ****       136.7500 126.7500 104.0000 Du        
  35237 ****       136.7500 126.7500 104.2500 Du        
  35238 ****       136.7500 127.0000  96.0000 Du        
  35239 ****       136.7500 127.0000  96.7500 Du        
  35240 ****       136.7500 127.0000  97.0000 Du        
  35241 ****       136.7500 127.0000  97.2500 Du        
  35242 ****       136.7500 127.0000  97.5000 Du        
  35243 ****       136.7500 127.0000  97.7500 Du        
  35244 ****       136.7500 127.0000 102.0000 Du        
  35245 ****       136.7500 127.0000 102.2500 Du        
  35246 ****       136.7500 127.0000 102.5000 Du        
  35247 ****       136.7500 127.0000 102.7500 Du        
  35248 ****       136.7500 127.0000 103.0000 Du        
  35249 ****       136.7500 127.0000 103.2500 Du        
  35250 ****       136.7500 127.0000 103.5000 Du        
  35251 ****       136.7500 127.0000 103.7500 Du        
  35252 ****       136.7500 127.0000 104.0000 Du        
  35253 ****       136.7500 127.0000 104.2500 Du        
  35254 ****       136.7500 127.2500  95.7500 Du        
  35255 ****       136.7500 127.2500  96.0000 Du        
  35256 ****       136.7500 127.2500  96.7500 Du        
  35257 ****       136.7500 127.2500  97.0000 Du        
  35258 ****       136.7500 127.2500  97.2500 Du        
  35259 ****       136.7500 127.2500  97.5000 Du        
  35260 ****       136.7500 127.2500  97.7500 Du        
  35261 ****       136.7500 127.2500 102.0000 Du        
  35262 ****       136.7500 127.2500 102.2500 Du        
  35263 ****       136.7500 127.2500 102.5000 Du        
  35264 ****       136.7500 127.2500 102.7500 Du        
  35265 ****       136.7500 127.2500 103.0000 Du        
  35266 ****       136.7500 127.2500 103.2500 Du        
  35267 ****       136.7500 127.5000  95.7500 Du        
  35268 ****       136.7500 127.5000  96.0000 Du        
  35269 ****       136.7500 127.5000  96.7500 Du        
  35270 ****       136.7500 127.5000  97.0000 Du        
  35271 ****       136.7500 127.5000  97.2500 Du        
  35272 ****       136.7500 127.5000  97.5000 Du        
  35273 ****       136.7500 127.5000  97.7500 Du        
  35274 ****       136.7500 127.5000 102.5000 Du        
  35275 ****       136.7500 127.7500  96.7500 Du        
  35276 ****       136.7500 127.7500  97.0000 Du        
  35277 ****       136.7500 127.7500  97.2500 Du        
  35278 ****       136.7500 127.7500  97.5000 Du        
  35279 ****       136.7500 128.0000  96.7500 Du        
  35280 ****       136.7500 128.0000  97.0000 Du        
  35281 ****       136.7500 128.2500 148.7500 Du        
  35282 ****       136.7500 128.2500 149.0000 Du        
  35283 ****       136.7500 128.2500 149.2500 Du        
  35284 ****       136.7500 128.5000 149.5000 Du        
  35285 ****       136.7500 128.7500 149.2500 Du        
  35286 ****       136.7500 128.7500 149.5000 Du        
  35287 ****       136.7500 128.7500 149.7500 Du        
  35288 ****       136.7500 128.7500 150.0000 Du        
  35289 ****       136.7500 129.0000 149.5000 Du        
  35290 ****       136.7500 129.0000 149.7500 Du        
  35291 ****       136.7500 129.0000 150.0000 Du        
  35292 ****       136.7500 129.0000 150.2500 Du        
  35293 ****       136.7500 129.0000 150.5000 Du        
  35294 ****       136.7500 129.2500 149.5000 Du        
  35295 ****       136.7500 129.2500 149.7500 Du        
  35296 ****       136.7500 129.2500 150.0000 Du        
  35297 ****       136.7500 129.2500 150.2500 Du        
  35298 ****       136.7500 129.2500 150.5000 Du        
  35299 ****       136.7500 133.7500 102.5000 Du        
  35300 ****       136.7500 133.7500 102.7500 Du        
  35301 ****       136.7500 133.7500 103.0000 Du        
  35302 ****       136.7500 133.7500 151.7500 Du        
  35303 ****       136.7500 133.7500 152.0000 Du        
  35304 ****       136.7500 133.7500 152.2500 Du        
  35305 ****       136.7500 133.7500 152.5000 Du        
  35306 ****       136.7500 133.7500 152.7500 Du        
  35307 ****       136.7500 134.0000 102.5000 Du        
  35308 ****       136.7500 134.0000 102.7500 Du        
  35309 ****       136.7500 134.0000 103.0000 Du        
  35310 ****       136.7500 134.0000 103.2500 Du        
  35311 ****       136.7500 134.0000 103.5000 Du        
  35312 ****       136.7500 134.0000 151.5000 Du        
  35313 ****       136.7500 134.0000 151.7500 Du        
  35314 ****       136.7500 134.0000 152.0000 Du        
  35315 ****       136.7500 134.0000 152.2500 Du        
  35316 ****       136.7500 134.0000 152.5000 Du        
  35317 ****       136.7500 134.0000 152.7500 Du        
  35318 ****       136.7500 134.0000 153.0000 Du        
  35319 ****       136.7500 134.2500 102.7500 Du        
  35320 ****       136.7500 134.2500 103.0000 Du        
  35321 ****       136.7500 134.2500 103.2500 Du        
  35322 ****       136.7500 134.2500 103.5000 Du        
  35323 ****       136.7500 134.2500 103.7500 Du        
  35324 ****       136.7500 134.2500 151.5000 Du        
  35325 ****       136.7500 134.2500 151.7500 Du        
  35326 ****       136.7500 134.2500 152.0000 Du        
  35327 ****       136.7500 134.2500 152.2500 Du        
  35328 ****       136.7500 134.2500 152.5000 Du        
  35329 ****       136.7500 134.2500 152.7500 Du        
  35330 ****       136.7500 134.2500 153.0000 Du        
  35331 ****       136.7500 134.2500 153.2500 Du        
  35332 ****       136.7500 134.5000 102.7500 Du        
  35333 ****       136.7500 134.5000 103.0000 Du        
  35334 ****       136.7500 134.5000 103.2500 Du        
  35335 ****       136.7500 134.5000 103.5000 Du        
  35336 ****       136.7500 134.5000 103.7500 Du        
  35337 ****       136.7500 134.5000 104.0000 Du        
  35338 ****       136.7500 134.5000 151.2500 Du        
  35339 ****       136.7500 134.5000 151.5000 Du        
  35340 ****       136.7500 134.5000 151.7500 Du        
  35341 ****       136.7500 134.5000 152.0000 Du        
  35342 ****       136.7500 134.5000 152.2500 Du        
  35343 ****       136.7500 134.5000 152.5000 Du        
  35344 ****       136.7500 134.5000 152.7500 Du        
  35345 ****       136.7500 134.5000 153.0000 Du        
  35346 ****       136.7500 134.5000 153.2500 Du        
  35347 ****       136.7500 134.5000 153.5000 Du        
  35348 ****       136.7500 134.7500 103.0000 Du        
  35349 ****       136.7500 134.7500 103.2500 Du        
  35350 ****       136.7500 134.7500 103.5000 Du        
  35351 ****       136.7500 134.7500 103.7500 Du        
  35352 ****       136.7500 134.7500 104.0000 Du        
  35353 ****       136.7500 134.7500 151.2500 Du        
  35354 ****       136.7500 134.7500 151.5000 Du        
  35355 ****       136.7500 134.7500 151.7500 Du        
  35356 ****       136.7500 134.7500 152.0000 Du        
  35357 ****       136.7500 134.7500 152.2500 Du        
  35358 ****       136.7500 134.7500 152.5000 Du        
  35359 ****       136.7500 134.7500 152.7500 Du        
  35360 ****       136.7500 134.7500 153.0000 Du        
  35361 ****       136.7500 134.7500 153.2500 Du        
  35362 ****       136.7500 134.7500 153.5000 Du        
  35363 ****       136.7500 134.7500 153.7500 Du        
  35364 ****       136.7500 135.0000 103.2500 Du        
  35365 ****       136.7500 135.0000 103.5000 Du        
  35366 ****       136.7500 135.0000 103.7500 Du        
  35367 ****       136.7500 135.0000 151.2500 Du        
  35368 ****       136.7500 135.0000 151.5000 Du        
  35369 ****       136.7500 135.0000 151.7500 Du        
  35370 ****       136.7500 135.0000 152.0000 Du        
  35371 ****       136.7500 135.0000 152.2500 Du        
  35372 ****       136.7500 135.0000 152.5000 Du        
  35373 ****       136.7500 135.0000 152.7500 Du        
  35374 ****       136.7500 135.0000 153.0000 Du        
  35375 ****       136.7500 135.0000 153.2500 Du        
  35376 ****       136.7500 135.0000 153.5000 Du        
  35377 ****       136.7500 135.0000 153.7500 Du        
  35378 ****       136.7500 135.2500 151.5000 Du        
  35379 ****       136.7500 135.2500 151.7500 Du        
  35380 ****       136.7500 135.2500 152.0000 Du        
  35381 ****       136.7500 135.2500 152.2500 Du        
  35382 ****       136.7500 135.2500 152.5000 Du        
  35383 ****       136.7500 135.2500 152.7500 Du        
  35384 ****       136.7500 135.2500 153.0000 Du        
  35385 ****       136.7500 135.2500 153.2500 Du        
  35386 ****       136.7500 135.5000 151.5000 Du        
  35387 ****       136.7500 135.5000 151.7500 Du        
  35388 ****       136.7500 135.5000 152.0000 Du        
  35389 ****       136.7500 138.2500  91.5000 Du        
  35390 ****       136.7500 138.2500  91.7500 Du        
  35391 ****       136.7500 138.2500  92.0000 Du        
  35392 ****       136.7500 138.5000  91.5000 Du        
  35393 ****       136.7500 138.5000  91.7500 Du        
  35394 ****       136.7500 138.5000  92.0000 Du        
  35395 ****       136.7500 138.5000  92.2500 Du        
  35396 ****       136.7500 138.7500  91.5000 Du        
  35397 ****       136.7500 138.7500  91.7500 Du        
  35398 ****       136.7500 138.7500  92.0000 Du        
  35399 ****       136.7500 138.7500  92.2500 Du        
  35400 ****       136.7500 138.7500  92.5000 Du        
  35401 ****       136.7500 139.0000  91.7500 Du        
  35402 ****       136.7500 139.0000  92.0000 Du        
  35403 ****       136.7500 139.0000  92.2500 Du        
  35404 ****       136.7500 139.0000  92.5000 Du        
  35405 ****       136.7500 139.0000  92.7500 Du        
  35406 ****       136.7500 139.2500  91.7500 Du        
  35407 ****       136.7500 139.2500  92.0000 Du        
  35408 ****       136.7500 139.2500  92.2500 Du        
  35409 ****       136.7500 139.2500  92.5000 Du        
  35410 ****       136.7500 139.2500  92.7500 Du        
  35411 ****       136.7500 139.5000  92.0000 Du        
  35412 ****       136.7500 139.5000  92.2500 Du        
  35413 ****       136.7500 139.5000  92.5000 Du        
  35414 ****       136.7500 139.7500  92.0000 Du        
  35415 ****       136.7500 139.7500  92.2500 Du        
  35416 ****       136.7500 139.7500  92.5000 Du        
  35417 ****       136.7500 139.7500  92.7500 Du        
  35418 ****       136.7500 140.0000  92.5000 Du        
  35419 ****       136.7500 140.7500  94.2500 Du        
  35420 ****       136.7500 140.7500  94.5000 Du        
  35421 ****       136.7500 140.7500  94.7500 Du        
  35422 ****       136.7500 141.0000  93.7500 Du        
  35423 ****       136.7500 141.0000  94.0000 Du        
  35424 ****       136.7500 141.0000  94.2500 Du        
  35425 ****       136.7500 141.0000  94.5000 Du        
  35426 ****       136.7500 141.0000  94.7500 Du        
  35427 ****       136.7500 141.0000  95.0000 Du        
  35428 ****       136.7500 141.0000  95.2500 Du        
  35429 ****       136.7500 141.2500  93.5000 Du        
  35430 ****       136.7500 141.2500  93.7500 Du        
  35431 ****       136.7500 141.2500  94.0000 Du        
  35432 ****       136.7500 141.2500  94.2500 Du        
  35433 ****       136.7500 141.2500  94.5000 Du        
  35434 ****       136.7500 141.2500  94.7500 Du        
  35435 ****       136.7500 141.2500  95.0000 Du        
  35436 ****       136.7500 141.2500  95.2500 Du        
  35437 ****       136.7500 141.5000  93.7500 Du        
  35438 ****       136.7500 141.5000  94.0000 Du        
  35439 ****       136.7500 141.5000  94.2500 Du        
  35440 ****       136.7500 141.5000  94.5000 Du        
  35441 ****       136.7500 141.5000  94.7500 Du        
  35442 ****       136.7500 141.5000  95.0000 Du        
  35443 ****       136.7500 141.5000  95.2500 Du        
  35444 ****       136.7500 141.7500  93.5000 Du        
  35445 ****       136.7500 141.7500  93.7500 Du        
  35446 ****       136.7500 141.7500  94.0000 Du        
  35447 ****       136.7500 141.7500  94.2500 Du        
  35448 ****       136.7500 141.7500  94.5000 Du        
  35449 ****       136.7500 141.7500  94.7500 Du        
  35450 ****       136.7500 141.7500  95.0000 Du        
  35451 ****       136.7500 142.0000  93.5000 Du        
  35452 ****       136.7500 142.0000  93.7500 Du        
  35453 ****       136.7500 142.0000  94.0000 Du        
  35454 ****       136.7500 142.0000  94.2500 Du        
  35455 ****       136.7500 142.0000  94.5000 Du        
  35456 ****       136.7500 142.0000  94.7500 Du        
  35457 ****       136.7500 142.2500  93.5000 Du        
  35458 ****       136.7500 142.2500  93.7500 Du        
  35459 ****       136.7500 142.2500  94.0000 Du        
  35460 ****       136.7500 142.2500  94.2500 Du        
  35461 ****       136.7500 142.2500  94.5000 Du        
  35462 ****       136.7500 142.5000  93.2500 Du        
  35463 ****       136.7500 142.5000  93.5000 Du        
  35464 ****       136.7500 142.5000  93.7500 Du        
  35465 ****       136.7500 142.5000  94.0000 Du        
  35466 ****       136.7500 142.5000  94.2500 Du        
  35467 ****       136.7500 142.7500  93.0000 Du        
  35468 ****       136.7500 142.7500  93.2500 Du        
  35469 ****       136.7500 142.7500  93.5000 Du        
  35470 ****       136.7500 142.7500  93.7500 Du        
  35471 ****       136.7500 142.7500  94.0000 Du        
  35472 ****       136.7500 143.0000  93.0000 Du        
  35473 ****       136.7500 143.0000  93.2500 Du        
  35474 ****       136.7500 143.0000  93.5000 Du        
  35475 ****       136.7500 143.2500  93.0000 Du        
  35476 ****       136.7500 143.2500  93.2500 Du        
  35477 ****       136.7500 143.5000  92.7500 Du        
  35478 ****       136.7500 143.5000  93.0000 Du        
  35479 ****       136.7500 143.5000  93.2500 Du        
  35480 ****       136.7500 143.5000 130.0000 Du        
  35481 ****       136.7500 143.5000 130.2500 Du        
  35482 ****       136.7500 143.5000 130.5000 Du        
  35483 ****       136.7500 143.5000 130.7500 Du        
  35484 ****       136.7500 143.7500  92.5000 Du        
  35485 ****       136.7500 143.7500  92.7500 Du        
  35486 ****       136.7500 143.7500  93.0000 Du        
  35487 ****       136.7500 143.7500 129.7500 Du        
  35488 ****       136.7500 143.7500 130.0000 Du        
  35489 ****       136.7500 143.7500 130.2500 Du        
  35490 ****       136.7500 143.7500 130.5000 Du        
  35491 ****       136.7500 143.7500 130.7500 Du        
  35492 ****       136.7500 143.7500 131.0000 Du        
  35493 ****       136.7500 143.7500 131.2500 Du        
  35494 ****       136.7500 144.0000  92.5000 Du        
  35495 ****       136.7500 144.0000  92.7500 Du        
  35496 ****       136.7500 144.0000 129.5000 Du        
  35497 ****       136.7500 144.0000 129.7500 Du        
  35498 ****       136.7500 144.0000 130.0000 Du        
  35499 ****       136.7500 144.0000 130.2500 Du        
  35500 ****       136.7500 144.0000 130.5000 Du        
  35501 ****       136.7500 144.0000 130.7500 Du        
  35502 ****       136.7500 144.0000 131.0000 Du        
  35503 ****       136.7500 144.0000 131.2500 Du        
  35504 ****       136.7500 144.2500  92.5000 Du        
  35505 ****       136.7500 144.2500  92.7500 Du        
  35506 ****       136.7500 144.2500 129.2500 Du        
  35507 ****       136.7500 144.2500 129.5000 Du        
  35508 ****       136.7500 144.2500 129.7500 Du        
  35509 ****       136.7500 144.2500 130.0000 Du        
  35510 ****       136.7500 144.2500 130.2500 Du        
  35511 ****       136.7500 144.2500 130.5000 Du        
  35512 ****       136.7500 144.2500 130.7500 Du        
  35513 ****       136.7500 144.2500 131.0000 Du        
  35514 ****       136.7500 144.2500 131.2500 Du        
  35515 ****       136.7500 144.5000  92.2500 Du        
  35516 ****       136.7500 144.5000  92.5000 Du        
  35517 ****       136.7500 144.7500  92.0000 Du        
  35518 ****       136.7500 144.7500  92.2500 Du        
  35519 ****       136.7500 145.0000  92.0000 Du        
  35520 ****       136.7500 148.2500 119.0000 Du        
  35521 ****       136.7500 148.2500 119.2500 Du        
  35522 ****       136.7500 148.2500 119.5000 Du        
  35523 ****       136.7500 148.5000 119.0000 Du        
  35524 ****       136.7500 148.5000 119.2500 Du        
  35525 ****       136.7500 152.2500 106.5000 Du        
  35526 ****       136.7500 152.2500 106.7500 Du        
  35527 ****       136.7500 152.2500 107.0000 Du        
  35528 ****       136.7500 152.2500 107.2500 Du        
  35529 ****       136.7500 152.5000 106.2500 Du        
  35530 ****       136.7500 152.5000 106.5000 Du        
  35531 ****       136.7500 152.5000 106.7500 Du        
  35532 ****       136.7500 152.5000 107.0000 Du        
  35533 ****       136.7500 152.5000 107.2500 Du        
  35534 ****       136.7500 152.5000 107.5000 Du        
  35535 ****       136.7500 152.5000 107.7500 Du        
  35536 ****       136.7500 152.7500 106.0000 Du        
  35537 ****       136.7500 152.7500 106.2500 Du        
  35538 ****       136.7500 152.7500 106.5000 Du        
  35539 ****       136.7500 152.7500 106.7500 Du        
  35540 ****       136.7500 152.7500 107.0000 Du        
  35541 ****       136.7500 152.7500 107.2500 Du        
  35542 ****       136.7500 152.7500 107.5000 Du        
  35543 ****       136.7500 152.7500 107.7500 Du        
  35544 ****       136.7500 152.7500 108.0000 Du        
  35545 ****       136.7500 152.7500 108.2500 Du        
  35546 ****       136.7500 153.0000 106.0000 Du        
  35547 ****       136.7500 153.0000 106.2500 Du        
  35548 ****       136.7500 153.0000 106.5000 Du        
  35549 ****       136.7500 153.0000 106.7500 Du        
  35550 ****       136.7500 153.0000 107.0000 Du        
  35551 ****       136.7500 153.0000 107.2500 Du        
  35552 ****       136.7500 153.0000 107.5000 Du        
  35553 ****       136.7500 153.0000 107.7500 Du        
  35554 ****       136.7500 153.0000 108.0000 Du        
  35555 ****       136.7500 153.0000 108.2500 Du        
  35556 ****       136.7500 153.0000 108.5000 Du        
  35557 ****       136.7500 153.2500 106.0000 Du        
  35558 ****       136.7500 153.2500 106.2500 Du        
  35559 ****       136.7500 153.2500 106.5000 Du        
  35560 ****       136.7500 153.2500 106.7500 Du        
  35561 ****       136.7500 153.2500 107.0000 Du        
  35562 ****       136.7500 153.2500 107.2500 Du        
  35563 ****       136.7500 153.2500 107.5000 Du        
  35564 ****       136.7500 153.2500 107.7500 Du        
  35565 ****       136.7500 153.2500 108.0000 Du        
  35566 ****       136.7500 153.2500 108.2500 Du        
  35567 ****       136.7500 153.2500 108.5000 Du        
  35568 ****       136.7500 153.5000 106.0000 Du        
  35569 ****       136.7500 153.5000 106.2500 Du        
  35570 ****       136.7500 153.5000 106.5000 Du        
  35571 ****       136.7500 153.5000 106.7500 Du        
  35572 ****       136.7500 153.5000 107.0000 Du        
  35573 ****       136.7500 153.5000 107.2500 Du        
  35574 ****       136.7500 153.5000 107.5000 Du        
  35575 ****       136.7500 153.5000 107.7500 Du        
  35576 ****       136.7500 153.5000 108.0000 Du        
  35577 ****       136.7500 153.5000 108.2500 Du        
  35578 ****       136.7500 153.7500 106.0000 Du        
  35579 ****       136.7500 153.7500 106.2500 Du        
  35580 ****       136.7500 153.7500 106.5000 Du        
  35581 ****       136.7500 153.7500 106.7500 Du        
  35582 ****       136.7500 153.7500 107.0000 Du        
  35583 ****       136.7500 153.7500 107.2500 Du        
  35584 ****       136.7500 153.7500 107.5000 Du        
  35585 ****       136.7500 153.7500 107.7500 Du        
  35586 ****       136.7500 153.7500 108.0000 Du        
  35587 ****       136.7500 153.7500 108.2500 Du        
  35588 ****       136.7500 154.0000 105.7500 Du        
  35589 ****       136.7500 154.0000 106.0000 Du        
  35590 ****       136.7500 154.0000 106.2500 Du        
  35591 ****       136.7500 154.0000 106.5000 Du        
  35592 ****       136.7500 154.0000 106.7500 Du        
  35593 ****       136.7500 154.0000 107.0000 Du        
  35594 ****       136.7500 154.0000 107.2500 Du        
  35595 ****       136.7500 154.0000 107.5000 Du        
  35596 ****       136.7500 154.0000 107.7500 Du        
  35597 ****       136.7500 154.0000 108.0000 Du        
  35598 ****       136.7500 154.2500 105.7500 Du        
  35599 ****       136.7500 154.2500 106.0000 Du        
  35600 ****       136.7500 154.2500 106.2500 Du        
  35601 ****       136.7500 154.2500 106.5000 Du        
  35602 ****       136.7500 154.2500 106.7500 Du        
  35603 ****       136.7500 154.2500 107.0000 Du        
  35604 ****       136.7500 154.2500 107.2500 Du        
  35605 ****       136.7500 154.5000 106.0000 Du        
  35606 ****       136.7500 156.2500 144.5000 Du        
  35607 ****       136.7500 156.2500 144.7500 Du        
  35608 ****       136.7500 156.5000 144.5000 Du        
  35609 ****       136.7500 156.5000 144.7500 Du        
  35610 ****       136.7500 156.7500 144.5000 Du        
  35611 ****       136.7500 156.7500 144.7500 Du        
  35612 ****       136.7500 156.7500 145.0000 Du        
  35613 ****       136.7500 157.0000 144.5000 Du        
  35614 ****       136.7500 157.0000 144.7500 Du        
  35615 ****       136.7500 157.0000 145.0000 Du        
  35616 ****       136.7500 157.2500 144.5000 Du        
  35617 ****       136.7500 157.2500 144.7500 Du        
  35618 ****       136.7500 157.2500 145.0000 Du        
  35619 ****       136.7500 159.7500 153.0000 Du        
  35620 ****       136.7500 160.0000 152.7500 Du        
  35621 ****       136.7500 160.0000 153.0000 Du        
  35622 ****       136.7500 160.0000 153.2500 Du        
  35623 ****       136.7500 160.0000 153.5000 Du        
  35624 ****       136.7500 160.0000 153.7500 Du        
  35625 ****       136.7500 160.0000 154.0000 Du        
  35626 ****       136.7500 160.0000 154.2500 Du        
  35627 ****       136.7500 160.0000 154.5000 Du        
  35628 ****       136.7500 160.0000 154.7500 Du        
  35629 ****       136.7500 160.2500 152.7500 Du        
  35630 ****       136.7500 160.2500 153.0000 Du        
  35631 ****       136.7500 160.2500 153.2500 Du        
  35632 ****       136.7500 160.2500 153.5000 Du        
  35633 ****       136.7500 160.2500 153.7500 Du        
  35634 ****       136.7500 160.2500 154.0000 Du        
  35635 ****       136.7500 160.2500 154.2500 Du        
  35636 ****       136.7500 160.2500 154.5000 Du        
  35637 ****       136.7500 160.2500 154.7500 Du        
  35638 ****       136.7500 160.2500 155.0000 Du        
  35639 ****       136.7500 160.5000 152.7500 Du        
  35640 ****       136.7500 160.5000 153.0000 Du        
  35641 ****       136.7500 160.5000 153.2500 Du        
  35642 ****       136.7500 160.5000 153.5000 Du        
  35643 ****       136.7500 160.5000 153.7500 Du        
  35644 ****       136.7500 160.5000 154.0000 Du        
  35645 ****       136.7500 160.5000 154.2500 Du        
  35646 ****       136.7500 160.5000 154.5000 Du        
  35647 ****       136.7500 160.5000 154.7500 Du        
  35648 ****       136.7500 160.5000 155.0000 Du        
  35649 ****       136.7500 160.7500 152.7500 Du        
  35650 ****       136.7500 160.7500 153.0000 Du        
  35651 ****       136.7500 160.7500 153.2500 Du        
  35652 ****       136.7500 160.7500 153.5000 Du        
  35653 ****       136.7500 160.7500 153.7500 Du        
  35654 ****       136.7500 160.7500 154.0000 Du        
  35655 ****       136.7500 160.7500 154.2500 Du        
  35656 ****       136.7500 160.7500 154.5000 Du        
  35657 ****       136.7500 160.7500 154.7500 Du        
  35658 ****       136.7500 160.7500 155.0000 Du        
  35659 ****       136.7500 161.0000 152.7500 Du        
  35660 ****       136.7500 161.0000 153.0000 Du        
  35661 ****       136.7500 161.0000 153.2500 Du        
  35662 ****       136.7500 161.0000 153.5000 Du        
  35663 ****       136.7500 161.0000 153.7500 Du        
  35664 ****       136.7500 161.0000 154.0000 Du        
  35665 ****       136.7500 161.0000 154.2500 Du        
  35666 ****       136.7500 161.0000 154.5000 Du        
  35667 ****       136.7500 161.0000 154.7500 Du        
  35668 ****       136.7500 161.0000 155.0000 Du        
  35669 ****       136.7500 161.0000 155.2500 Du        
  35670 ****       136.7500 161.2500 152.5000 Du        
  35671 ****       136.7500 161.2500 152.7500 Du        
  35672 ****       136.7500 161.2500 153.0000 Du        
  35673 ****       136.7500 161.2500 153.2500 Du        
  35674 ****       136.7500 161.2500 153.5000 Du        
  35675 ****       136.7500 161.2500 153.7500 Du        
  35676 ****       136.7500 161.2500 154.0000 Du        
  35677 ****       136.7500 161.2500 154.2500 Du        
  35678 ****       136.7500 161.2500 154.5000 Du        
  35679 ****       136.7500 161.2500 154.7500 Du        
  35680 ****       136.7500 161.2500 155.0000 Du        
  35681 ****       136.7500 161.2500 155.2500 Du        
  35682 ****       136.7500 161.5000 152.7500 Du        
  35683 ****       136.7500 161.5000 153.0000 Du        
  35684 ****       136.7500 161.5000 153.2500 Du        
  35685 ****       136.7500 161.5000 153.5000 Du        
  35686 ****       136.7500 161.5000 153.7500 Du        
  35687 ****       136.7500 161.5000 154.0000 Du        
  35688 ****       136.7500 161.5000 154.2500 Du        
  35689 ****       136.7500 161.5000 154.5000 Du        
  35690 ****       136.7500 161.5000 154.7500 Du        
  35691 ****       136.7500 161.5000 155.0000 Du        
  35692 ****       136.7500 161.7500 152.7500 Du        
  35693 ****       136.7500 161.7500 153.0000 Du        
  35694 ****       136.7500 161.7500 153.2500 Du        
  35695 ****       136.7500 161.7500 153.5000 Du        
  35696 ****       136.7500 161.7500 153.7500 Du        
  35697 ****       136.7500 161.7500 154.0000 Du        
  35698 ****       136.7500 161.7500 154.2500 Du        
  35699 ****       136.7500 161.7500 154.5000 Du        
  35700 ****       136.7500 161.7500 154.7500 Du        
  35701 ****       136.7500 162.0000 152.7500 Du        
  35702 ****       136.7500 162.0000 153.0000 Du        
  35703 ****       136.7500 162.0000 153.2500 Du        
  35704 ****       136.7500 162.0000 153.5000 Du        
  35705 ****       136.7500 162.0000 153.7500 Du        
  35706 ****       136.7500 162.0000 154.0000 Du        
  35707 ****       136.7500 162.2500 152.7500 Du        
  35708 ****       136.7500 162.2500 153.0000 Du        
  35709 ****       137.0000 125.5000 101.5000 Du        
  35710 ****       137.0000 125.5000 101.7500 Du        
  35711 ****       137.0000 125.5000 102.0000 Du        
  35712 ****       137.0000 125.7500 101.5000 Du        
  35713 ****       137.0000 125.7500 101.7500 Du        
  35714 ****       137.0000 125.7500 102.0000 Du        
  35715 ****       137.0000 125.7500 102.2500 Du        
  35716 ****       137.0000 125.7500 102.5000 Du        
  35717 ****       137.0000 126.0000 101.2500 Du        
  35718 ****       137.0000 126.0000 101.5000 Du        
  35719 ****       137.0000 126.0000 101.7500 Du        
  35720 ****       137.0000 126.0000 102.0000 Du        
  35721 ****       137.0000 126.0000 102.2500 Du        
  35722 ****       137.0000 126.0000 102.5000 Du        
  35723 ****       137.0000 126.0000 102.7500 Du        
  35724 ****       137.0000 126.0000 103.0000 Du        
  35725 ****       137.0000 126.0000 103.2500 Du        
  35726 ****       137.0000 126.2500 101.2500 Du        
  35727 ****       137.0000 126.2500 101.5000 Du        
  35728 ****       137.0000 126.2500 101.7500 Du        
  35729 ****       137.0000 126.2500 102.0000 Du        
  35730 ****       137.0000 126.2500 102.2500 Du        
  35731 ****       137.0000 126.2500 102.5000 Du        
  35732 ****       137.0000 126.2500 102.7500 Du        
  35733 ****       137.0000 126.2500 103.0000 Du        
  35734 ****       137.0000 126.2500 103.2500 Du        
  35735 ****       137.0000 126.2500 103.5000 Du        
  35736 ****       137.0000 126.2500 103.7500 Du        
  35737 ****       137.0000 126.5000 101.5000 Du        
  35738 ****       137.0000 126.5000 101.7500 Du        
  35739 ****       137.0000 126.5000 102.0000 Du        
  35740 ****       137.0000 126.5000 102.2500 Du        
  35741 ****       137.0000 126.5000 102.5000 Du        
  35742 ****       137.0000 126.5000 102.7500 Du        
  35743 ****       137.0000 126.5000 103.0000 Du        
  35744 ****       137.0000 126.5000 103.2500 Du        
  35745 ****       137.0000 126.5000 103.5000 Du        
  35746 ****       137.0000 126.5000 103.7500 Du        
  35747 ****       137.0000 126.5000 104.0000 Du        
  35748 ****       137.0000 126.5000 104.2500 Du        
  35749 ****       137.0000 126.7500  97.0000 Du        
  35750 ****       137.0000 126.7500  97.2500 Du        
  35751 ****       137.0000 126.7500 101.5000 Du        
  35752 ****       137.0000 126.7500 101.7500 Du        
  35753 ****       137.0000 126.7500 102.0000 Du        
  35754 ****       137.0000 126.7500 102.2500 Du        
  35755 ****       137.0000 126.7500 102.5000 Du        
  35756 ****       137.0000 126.7500 102.7500 Du        
  35757 ****       137.0000 126.7500 103.0000 Du        
  35758 ****       137.0000 126.7500 103.2500 Du        
  35759 ****       137.0000 126.7500 103.5000 Du        
  35760 ****       137.0000 126.7500 103.7500 Du        
  35761 ****       137.0000 126.7500 104.0000 Du        
  35762 ****       137.0000 126.7500 104.2500 Du        
  35763 ****       137.0000 126.7500 104.5000 Du        
  35764 ****       137.0000 127.0000  95.7500 Du        
  35765 ****       137.0000 127.0000  96.0000 Du        
  35766 ****       137.0000 127.0000  96.7500 Du        
  35767 ****       137.0000 127.0000  97.0000 Du        
  35768 ****       137.0000 127.0000  97.2500 Du        
  35769 ****       137.0000 127.0000  97.5000 Du        
  35770 ****       137.0000 127.0000  97.7500 Du        
  35771 ****       137.0000 127.0000  98.0000 Du        
  35772 ****       137.0000 127.0000 101.5000 Du        
  35773 ****       137.0000 127.0000 101.7500 Du        
  35774 ****       137.0000 127.0000 102.0000 Du        
  35775 ****       137.0000 127.0000 102.2500 Du        
  35776 ****       137.0000 127.0000 102.5000 Du        
  35777 ****       137.0000 127.0000 102.7500 Du        
  35778 ****       137.0000 127.0000 103.0000 Du        
  35779 ****       137.0000 127.0000 103.2500 Du        
  35780 ****       137.0000 127.0000 103.5000 Du        
  35781 ****       137.0000 127.0000 103.7500 Du        
  35782 ****       137.0000 127.0000 104.0000 Du        
  35783 ****       137.0000 127.0000 104.2500 Du        
  35784 ****       137.0000 127.0000 104.5000 Du        
  35785 ****       137.0000 127.2500  95.7500 Du        
  35786 ****       137.0000 127.2500  96.0000 Du        
  35787 ****       137.0000 127.2500  96.7500 Du        
  35788 ****       137.0000 127.2500  97.0000 Du        
  35789 ****       137.0000 127.2500  97.2500 Du        
  35790 ****       137.0000 127.2500  97.5000 Du        
  35791 ****       137.0000 127.2500  97.7500 Du        
  35792 ****       137.0000 127.2500  98.0000 Du        
  35793 ****       137.0000 127.2500 101.7500 Du        
  35794 ****       137.0000 127.2500 102.0000 Du        
  35795 ****       137.0000 127.2500 102.2500 Du        
  35796 ****       137.0000 127.2500 102.5000 Du        
  35797 ****       137.0000 127.2500 102.7500 Du        
  35798 ****       137.0000 127.2500 103.0000 Du        
  35799 ****       137.0000 127.2500 103.2500 Du        
  35800 ****       137.0000 127.2500 103.5000 Du        
  35801 ****       137.0000 127.2500 103.7500 Du        
  35802 ****       137.0000 127.2500 104.0000 Du        
  35803 ****       137.0000 127.2500 104.2500 Du        
  35804 ****       137.0000 127.5000  95.7500 Du        
  35805 ****       137.0000 127.5000  96.0000 Du        
  35806 ****       137.0000 127.5000  96.7500 Du        
  35807 ****       137.0000 127.5000  97.0000 Du        
  35808 ****       137.0000 127.5000  97.2500 Du        
  35809 ****       137.0000 127.5000  97.5000 Du        
  35810 ****       137.0000 127.5000  97.7500 Du        
  35811 ****       137.0000 127.5000 101.7500 Du        
  35812 ****       137.0000 127.5000 102.0000 Du        
  35813 ****       137.0000 127.5000 102.2500 Du        
  35814 ****       137.0000 127.5000 102.5000 Du        
  35815 ****       137.0000 127.5000 102.7500 Du        
  35816 ****       137.0000 127.5000 103.0000 Du        
  35817 ****       137.0000 127.7500  96.0000 Du        
  35818 ****       137.0000 127.7500  96.7500 Du        
  35819 ****       137.0000 127.7500  97.0000 Du        
  35820 ****       137.0000 127.7500  97.2500 Du        
  35821 ****       137.0000 127.7500  97.5000 Du        
  35822 ****       137.0000 128.0000  96.7500 Du        
  35823 ****       137.0000 128.0000 148.7500 Du        
  35824 ****       137.0000 128.0000 149.0000 Du        
  35825 ****       137.0000 128.2500 148.7500 Du        
  35826 ****       137.0000 128.2500 149.0000 Du        
  35827 ****       137.0000 128.2500 149.2500 Du        
  35828 ****       137.0000 128.5000 149.0000 Du        
  35829 ****       137.0000 128.5000 149.2500 Du        
  35830 ****       137.0000 128.5000 149.5000 Du        
  35831 ****       137.0000 128.7500 149.0000 Du        
  35832 ****       137.0000 128.7500 149.2500 Du        
  35833 ****       137.0000 128.7500 149.5000 Du        
  35834 ****       137.0000 128.7500 149.7500 Du        
  35835 ****       137.0000 128.7500 150.0000 Du        
  35836 ****       137.0000 129.0000 149.0000 Du        
  35837 ****       137.0000 129.0000 149.2500 Du        
  35838 ****       137.0000 129.0000 149.5000 Du        
  35839 ****       137.0000 129.0000 149.7500 Du        
  35840 ****       137.0000 129.0000 150.0000 Du        
  35841 ****       137.0000 129.0000 150.2500 Du        
  35842 ****       137.0000 129.2500 149.5000 Du        
  35843 ****       137.0000 129.2500 149.7500 Du        
  35844 ****       137.0000 129.2500 150.0000 Du        
  35845 ****       137.0000 129.2500 150.2500 Du        
  35846 ****       137.0000 133.5000 102.2500 Du        
  35847 ****       137.0000 133.7500 102.2500 Du        
  35848 ****       137.0000 133.7500 102.5000 Du        
  35849 ****       137.0000 133.7500 102.7500 Du        
  35850 ****       137.0000 133.7500 103.0000 Du        
  35851 ****       137.0000 134.0000 102.2500 Du        
  35852 ****       137.0000 134.0000 102.5000 Du        
  35853 ****       137.0000 134.0000 102.7500 Du        
  35854 ****       137.0000 134.0000 103.0000 Du        
  35855 ****       137.0000 134.0000 103.2500 Du        
  35856 ****       137.0000 134.0000 151.5000 Du        
  35857 ****       137.0000 134.0000 151.7500 Du        
  35858 ****       137.0000 134.0000 152.0000 Du        
  35859 ****       137.0000 134.0000 152.2500 Du        
  35860 ****       137.0000 134.0000 152.5000 Du        
  35861 ****       137.0000 134.0000 152.7500 Du        
  35862 ****       137.0000 134.0000 153.0000 Du        
  35863 ****       137.0000 134.2500 102.5000 Du        
  35864 ****       137.0000 134.2500 102.7500 Du        
  35865 ****       137.0000 134.2500 103.0000 Du        
  35866 ****       137.0000 134.2500 103.2500 Du        
  35867 ****       137.0000 134.2500 103.5000 Du        
  35868 ****       137.0000 134.2500 151.5000 Du        
  35869 ****       137.0000 134.2500 151.7500 Du        
  35870 ****       137.0000 134.2500 152.0000 Du        
  35871 ****       137.0000 134.2500 152.2500 Du        
  35872 ****       137.0000 134.2500 152.5000 Du        
  35873 ****       137.0000 134.2500 152.7500 Du        
  35874 ****       137.0000 134.2500 153.0000 Du        
  35875 ****       137.0000 134.2500 153.2500 Du        
  35876 ****       137.0000 134.5000 102.7500 Du        
  35877 ****       137.0000 134.5000 103.0000 Du        
  35878 ****       137.0000 134.5000 103.2500 Du        
  35879 ****       137.0000 134.5000 103.5000 Du        
  35880 ****       137.0000 134.5000 103.7500 Du        
  35881 ****       137.0000 134.5000 151.2500 Du        
  35882 ****       137.0000 134.5000 151.5000 Du        
  35883 ****       137.0000 134.5000 151.7500 Du        
  35884 ****       137.0000 134.5000 152.0000 Du        
  35885 ****       137.0000 134.5000 152.2500 Du        
  35886 ****       137.0000 134.5000 152.5000 Du        
  35887 ****       137.0000 134.5000 152.7500 Du        
  35888 ****       137.0000 134.5000 153.0000 Du        
  35889 ****       137.0000 134.5000 153.2500 Du        
  35890 ****       137.0000 134.5000 153.5000 Du        
  35891 ****       137.0000 134.7500 103.0000 Du        
  35892 ****       137.0000 134.7500 103.2500 Du        
  35893 ****       137.0000 134.7500 103.5000 Du        
  35894 ****       137.0000 134.7500 103.7500 Du        
  35895 ****       137.0000 134.7500 151.0000 Du        
  35896 ****       137.0000 134.7500 151.2500 Du        
  35897 ****       137.0000 134.7500 151.5000 Du        
  35898 ****       137.0000 134.7500 151.7500 Du        
  35899 ****       137.0000 134.7500 152.0000 Du        
  35900 ****       137.0000 134.7500 152.2500 Du        
  35901 ****       137.0000 134.7500 152.5000 Du        
  35902 ****       137.0000 134.7500 152.7500 Du        
  35903 ****       137.0000 134.7500 153.0000 Du        
  35904 ****       137.0000 134.7500 153.2500 Du        
  35905 ****       137.0000 134.7500 153.5000 Du        
  35906 ****       137.0000 134.7500 153.7500 Du        
  35907 ****       137.0000 135.0000 103.2500 Du        
  35908 ****       137.0000 135.0000 103.5000 Du        
  35909 ****       137.0000 135.0000 151.0000 Du        
  35910 ****       137.0000 135.0000 151.2500 Du        
  35911 ****       137.0000 135.0000 151.5000 Du        
  35912 ****       137.0000 135.0000 151.7500 Du        
  35913 ****       137.0000 135.0000 152.0000 Du        
  35914 ****       137.0000 135.0000 152.2500 Du        
  35915 ****       137.0000 135.0000 152.5000 Du        
  35916 ****       137.0000 135.0000 152.7500 Du        
  35917 ****       137.0000 135.0000 153.0000 Du        
  35918 ****       137.0000 135.0000 153.2500 Du        
  35919 ****       137.0000 135.0000 153.5000 Du        
  35920 ****       137.0000 135.0000 153.7500 Du        
  35921 ****       137.0000 135.2500 151.0000 Du        
  35922 ****       137.0000 135.2500 151.2500 Du        
  35923 ****       137.0000 135.2500 151.5000 Du        
  35924 ****       137.0000 135.2500 151.7500 Du        
  35925 ****       137.0000 135.2500 152.0000 Du        
  35926 ****       137.0000 135.2500 152.2500 Du        
  35927 ****       137.0000 135.2500 152.5000 Du        
  35928 ****       137.0000 135.2500 152.7500 Du        
  35929 ****       137.0000 135.2500 153.0000 Du        
  35930 ****       137.0000 135.2500 153.2500 Du        
  35931 ****       137.0000 135.5000 150.5000 Du        
  35932 ****       137.0000 135.5000 150.7500 Du        
  35933 ****       137.0000 135.5000 151.0000 Du        
  35934 ****       137.0000 135.5000 151.2500 Du        
  35935 ****       137.0000 135.5000 151.5000 Du        
  35936 ****       137.0000 135.5000 151.7500 Du        
  35937 ****       137.0000 135.5000 152.0000 Du        
  35938 ****       137.0000 135.5000 152.2500 Du        
  35939 ****       137.0000 135.5000 152.5000 Du        
  35940 ****       137.0000 135.7500 150.5000 Du        
  35941 ****       137.0000 135.7500 150.7500 Du        
  35942 ****       137.0000 135.7500 151.0000 Du        
  35943 ****       137.0000 135.7500 151.2500 Du        
  35944 ****       137.0000 135.7500 151.5000 Du        
  35945 ****       137.0000 135.7500 151.7500 Du        
  35946 ****       137.0000 135.7500 152.0000 Du        
  35947 ****       137.0000 136.0000 150.5000 Du        
  35948 ****       137.0000 136.0000 150.7500 Du        
  35949 ****       137.0000 136.0000 151.0000 Du        
  35950 ****       137.0000 138.0000  91.2500 Du        
  35951 ****       137.0000 138.2500  91.5000 Du        
  35952 ****       137.0000 138.2500  91.7500 Du        
  35953 ****       137.0000 138.2500  92.0000 Du        
  35954 ****       137.0000 138.5000  91.5000 Du        
  35955 ****       137.0000 138.5000  91.7500 Du        
  35956 ****       137.0000 138.5000  92.0000 Du        
  35957 ****       137.0000 138.7500  91.5000 Du        
  35958 ****       137.0000 138.7500  91.7500 Du        
  35959 ****       137.0000 138.7500  92.0000 Du        
  35960 ****       137.0000 138.7500  92.2500 Du        
  35961 ****       137.0000 139.0000  91.7500 Du        
  35962 ****       137.0000 139.0000  92.0000 Du        
  35963 ****       137.0000 139.0000  92.2500 Du        
  35964 ****       137.0000 139.0000  92.5000 Du        
  35965 ****       137.0000 139.2500  91.7500 Du        
  35966 ****       137.0000 139.2500  92.0000 Du        
  35967 ****       137.0000 139.2500  92.2500 Du        
  35968 ****       137.0000 139.2500  92.5000 Du        
  35969 ****       137.0000 139.5000  92.0000 Du        
  35970 ****       137.0000 139.5000  92.2500 Du        
  35971 ****       137.0000 139.7500  92.0000 Du        
  35972 ****       137.0000 139.7500  92.2500 Du        
  35973 ****       137.0000 139.7500  92.5000 Du        
  35974 ****       137.0000 140.0000  92.0000 Du        
  35975 ****       137.0000 140.0000  92.2500 Du        
  35976 ****       137.0000 140.0000  92.5000 Du        
  35977 ****       137.0000 140.2500  92.0000 Du        
  35978 ****       137.0000 141.0000  93.2500 Du        
  35979 ****       137.0000 141.0000  94.0000 Du        
  35980 ****       137.0000 141.0000  94.5000 Du        
  35981 ****       137.0000 141.0000  94.7500 Du        
  35982 ****       137.0000 141.0000  95.0000 Du        
  35983 ****       137.0000 141.2500  93.7500 Du        
  35984 ****       137.0000 141.2500  94.0000 Du        
  35985 ****       137.0000 141.2500  94.2500 Du        
  35986 ****       137.0000 141.2500  94.5000 Du        
  35987 ****       137.0000 141.2500  94.7500 Du        
  35988 ****       137.0000 141.2500  95.0000 Du        
  35989 ****       137.0000 141.2500  95.2500 Du        
  35990 ****       137.0000 141.5000  93.7500 Du        
  35991 ****       137.0000 141.5000  94.0000 Du        
  35992 ****       137.0000 141.5000  94.2500 Du        
  35993 ****       137.0000 141.5000  94.5000 Du        
  35994 ****       137.0000 141.5000  94.7500 Du        
  35995 ****       137.0000 141.5000  95.0000 Du        
  35996 ****       137.0000 141.5000  95.2500 Du        
  35997 ****       137.0000 141.7500  93.2500 Du        
  35998 ****       137.0000 141.7500  93.5000 Du        
  35999 ****       137.0000 141.7500  93.7500 Du        
  36000 ****       137.0000 141.7500  94.0000 Du        
  36001 ****       137.0000 141.7500  94.2500 Du        
  36002 ****       137.0000 141.7500  94.5000 Du        
  36003 ****       137.0000 141.7500  94.7500 Du        
  36004 ****       137.0000 141.7500  95.0000 Du        
  36005 ****       137.0000 142.0000  93.0000 Du        
  36006 ****       137.0000 142.0000  93.2500 Du        
  36007 ****       137.0000 142.0000  93.5000 Du        
  36008 ****       137.0000 142.0000  93.7500 Du        
  36009 ****       137.0000 142.0000  94.0000 Du        
  36010 ****       137.0000 142.0000  94.2500 Du        
  36011 ****       137.0000 142.0000  94.5000 Du        
  36012 ****       137.0000 142.0000  94.7500 Du        
  36013 ****       137.0000 142.2500  93.0000 Du        
  36014 ****       137.0000 142.2500  93.2500 Du        
  36015 ****       137.0000 142.2500  93.5000 Du        
  36016 ****       137.0000 142.2500  93.7500 Du        
  36017 ****       137.0000 142.2500  94.0000 Du        
  36018 ****       137.0000 142.2500  94.2500 Du        
  36019 ****       137.0000 142.2500  94.5000 Du        
  36020 ****       137.0000 142.5000  93.2500 Du        
  36021 ****       137.0000 142.5000  93.5000 Du        
  36022 ****       137.0000 142.5000  93.7500 Du        
  36023 ****       137.0000 142.5000  94.0000 Du        
  36024 ****       137.0000 142.7500  93.0000 Du        
  36025 ****       137.0000 142.7500  93.2500 Du        
  36026 ****       137.0000 142.7500  93.5000 Du        
  36027 ****       137.0000 142.7500  93.7500 Du        
  36028 ****       137.0000 143.0000  92.7500 Du        
  36029 ****       137.0000 143.0000  93.0000 Du        
  36030 ****       137.0000 143.0000  93.2500 Du        
  36031 ****       137.0000 143.2500  92.7500 Du        
  36032 ****       137.0000 143.2500  93.0000 Du        
  36033 ****       137.0000 143.5000  92.7500 Du        
  36034 ****       137.0000 143.5000  93.0000 Du        
  36035 ****       137.0000 143.5000 130.2500 Du        
  36036 ****       137.0000 143.5000 130.5000 Du        
  36037 ****       137.0000 143.5000 130.7500 Du        
  36038 ****       137.0000 143.5000 131.0000 Du        
  36039 ****       137.0000 143.7500  92.5000 Du        
  36040 ****       137.0000 143.7500  92.7500 Du        
  36041 ****       137.0000 143.7500  93.0000 Du        
  36042 ****       137.0000 143.7500 129.7500 Du        
  36043 ****       137.0000 143.7500 130.0000 Du        
  36044 ****       137.0000 143.7500 130.2500 Du        
  36045 ****       137.0000 143.7500 130.5000 Du        
  36046 ****       137.0000 143.7500 130.7500 Du        
  36047 ****       137.0000 143.7500 131.0000 Du        
  36048 ****       137.0000 143.7500 131.2500 Du        
  36049 ****       137.0000 144.0000  92.5000 Du        
  36050 ****       137.0000 144.0000  92.7500 Du        
  36051 ****       137.0000 144.0000 129.5000 Du        
  36052 ****       137.0000 144.0000 129.7500 Du        
  36053 ****       137.0000 144.0000 130.0000 Du        
  36054 ****       137.0000 144.0000 130.2500 Du        
  36055 ****       137.0000 144.0000 130.5000 Du        
  36056 ****       137.0000 144.0000 130.7500 Du        
  36057 ****       137.0000 144.0000 131.0000 Du        
  36058 ****       137.0000 144.0000 131.2500 Du        
  36059 ****       137.0000 144.2500  92.5000 Du        
  36060 ****       137.0000 144.2500  92.7500 Du        
  36061 ****       137.0000 144.2500 129.2500 Du        
  36062 ****       137.0000 144.2500 129.5000 Du        
  36063 ****       137.0000 144.2500 129.7500 Du        
  36064 ****       137.0000 144.2500 130.0000 Du        
  36065 ****       137.0000 144.2500 130.2500 Du        
  36066 ****       137.0000 144.2500 130.5000 Du        
  36067 ****       137.0000 144.2500 130.7500 Du        
  36068 ****       137.0000 144.2500 131.0000 Du        
  36069 ****       137.0000 144.2500 131.2500 Du        
  36070 ****       137.0000 144.2500 131.5000 Du        
  36071 ****       137.0000 144.5000  92.2500 Du        
  36072 ****       137.0000 144.5000  92.5000 Du        
  36073 ****       137.0000 144.7500  92.2500 Du        
  36074 ****       137.0000 145.0000  92.0000 Du        
  36075 ****       137.0000 148.2500 119.2500 Du        
  36076 ****       137.0000 148.5000 119.2500 Du        
  36077 ****       137.0000 152.0000 107.0000 Du        
  36078 ****       137.0000 152.2500 106.5000 Du        
  36079 ****       137.0000 152.2500 106.7500 Du        
  36080 ****       137.0000 152.2500 107.0000 Du        
  36081 ****       137.0000 152.2500 107.2500 Du        
  36082 ****       137.0000 152.2500 107.5000 Du        
  36083 ****       137.0000 152.2500 107.7500 Du        
  36084 ****       137.0000 152.5000 106.2500 Du        
  36085 ****       137.0000 152.5000 106.5000 Du        
  36086 ****       137.0000 152.5000 106.7500 Du        
  36087 ****       137.0000 152.5000 107.0000 Du        
  36088 ****       137.0000 152.5000 107.2500 Du        
  36089 ****       137.0000 152.5000 107.5000 Du        
  36090 ****       137.0000 152.5000 107.7500 Du        
  36091 ****       137.0000 152.5000 108.0000 Du        
  36092 ****       137.0000 152.7500 106.0000 Du        
  36093 ****       137.0000 152.7500 106.2500 Du        
  36094 ****       137.0000 152.7500 106.5000 Du        
  36095 ****       137.0000 152.7500 106.7500 Du        
  36096 ****       137.0000 152.7500 107.0000 Du        
  36097 ****       137.0000 152.7500 107.2500 Du        
  36098 ****       137.0000 152.7500 107.5000 Du        
  36099 ****       137.0000 152.7500 107.7500 Du        
  36100 ****       137.0000 152.7500 108.0000 Du        
  36101 ****       137.0000 152.7500 108.2500 Du        
  36102 ****       137.0000 153.0000 106.0000 Du        
  36103 ****       137.0000 153.0000 106.2500 Du        
  36104 ****       137.0000 153.0000 106.5000 Du        
  36105 ****       137.0000 153.0000 106.7500 Du        
  36106 ****       137.0000 153.0000 107.0000 Du        
  36107 ****       137.0000 153.0000 107.2500 Du        
  36108 ****       137.0000 153.0000 107.5000 Du        
  36109 ****       137.0000 153.0000 107.7500 Du        
  36110 ****       137.0000 153.0000 108.0000 Du        
  36111 ****       137.0000 153.0000 108.2500 Du        
  36112 ****       137.0000 153.0000 108.5000 Du        
  36113 ****       137.0000 153.0000 108.7500 Du        
  36114 ****       137.0000 153.2500 105.7500 Du        
  36115 ****       137.0000 153.2500 106.0000 Du        
  36116 ****       137.0000 153.2500 106.2500 Du        
  36117 ****       137.0000 153.2500 106.5000 Du        
  36118 ****       137.0000 153.2500 106.7500 Du        
  36119 ****       137.0000 153.2500 107.0000 Du        
  36120 ****       137.0000 153.2500 107.2500 Du        
  36121 ****       137.0000 153.2500 107.5000 Du        
  36122 ****       137.0000 153.2500 107.7500 Du        
  36123 ****       137.0000 153.2500 108.0000 Du        
  36124 ****       137.0000 153.2500 108.2500 Du        
  36125 ****       137.0000 153.2500 108.5000 Du        
  36126 ****       137.0000 153.2500 108.7500 Du        
  36127 ****       137.0000 153.5000 105.7500 Du        
  36128 ****       137.0000 153.5000 106.0000 Du        
  36129 ****       137.0000 153.5000 106.2500 Du        
  36130 ****       137.0000 153.5000 106.5000 Du        
  36131 ****       137.0000 153.5000 106.7500 Du        
  36132 ****       137.0000 153.5000 107.0000 Du        
  36133 ****       137.0000 153.5000 107.2500 Du        
  36134 ****       137.0000 153.5000 107.5000 Du        
  36135 ****       137.0000 153.5000 107.7500 Du        
  36136 ****       137.0000 153.5000 108.0000 Du        
  36137 ****       137.0000 153.5000 108.2500 Du        
  36138 ****       137.0000 153.7500 105.7500 Du        
  36139 ****       137.0000 153.7500 106.0000 Du        
  36140 ****       137.0000 153.7500 106.2500 Du        
  36141 ****       137.0000 153.7500 106.5000 Du        
  36142 ****       137.0000 153.7500 106.7500 Du        
  36143 ****       137.0000 153.7500 107.0000 Du        
  36144 ****       137.0000 153.7500 107.2500 Du        
  36145 ****       137.0000 153.7500 107.5000 Du        
  36146 ****       137.0000 153.7500 107.7500 Du        
  36147 ****       137.0000 153.7500 108.0000 Du        
  36148 ****       137.0000 153.7500 108.2500 Du        
  36149 ****       137.0000 154.0000 105.7500 Du        
  36150 ****       137.0000 154.0000 106.0000 Du        
  36151 ****       137.0000 154.0000 106.2500 Du        
  36152 ****       137.0000 154.0000 106.5000 Du        
  36153 ****       137.0000 154.0000 106.7500 Du        
  36154 ****       137.0000 154.0000 107.0000 Du        
  36155 ****       137.0000 154.0000 107.2500 Du        
  36156 ****       137.0000 154.0000 107.5000 Du        
  36157 ****       137.0000 154.0000 107.7500 Du        
  36158 ****       137.0000 154.0000 108.0000 Du        
  36159 ****       137.0000 154.2500 105.7500 Du        
  36160 ****       137.0000 154.2500 106.0000 Du        
  36161 ****       137.0000 154.2500 106.2500 Du        
  36162 ****       137.0000 154.2500 106.5000 Du        
  36163 ****       137.0000 154.2500 106.7500 Du        
  36164 ****       137.0000 154.2500 107.0000 Du        
  36165 ****       137.0000 154.2500 107.2500 Du        
  36166 ****       137.0000 154.5000 105.7500 Du        
  36167 ****       137.0000 154.5000 106.0000 Du        
  36168 ****       137.0000 154.5000 106.2500 Du        
  36169 ****       137.0000 154.5000 106.5000 Du        
  36170 ****       137.0000 154.7500 105.7500 Du        
  36171 ****       137.0000 154.7500 106.0000 Du        
  36172 ****       137.0000 156.0000 144.5000 Du        
  36173 ****       137.0000 156.0000 144.7500 Du        
  36174 ****       137.0000 156.2500 144.5000 Du        
  36175 ****       137.0000 156.2500 144.7500 Du        
  36176 ****       137.0000 156.5000 144.2500 Du        
  36177 ****       137.0000 156.5000 144.5000 Du        
  36178 ****       137.0000 156.5000 144.7500 Du        
  36179 ****       137.0000 156.5000 145.0000 Du        
  36180 ****       137.0000 156.7500 144.2500 Du        
  36181 ****       137.0000 156.7500 144.5000 Du        
  36182 ****       137.0000 156.7500 144.7500 Du        
  36183 ****       137.0000 156.7500 145.0000 Du        
  36184 ****       137.0000 157.0000 144.2500 Du        
  36185 ****       137.0000 157.0000 144.5000 Du        
  36186 ****       137.0000 157.0000 144.7500 Du        
  36187 ****       137.0000 157.0000 145.0000 Du        
  36188 ****       137.0000 157.2500 144.5000 Du        
  36189 ****       137.0000 157.2500 144.7500 Du        
  36190 ****       137.0000 157.2500 145.0000 Du        
  36191 ****       137.0000 159.7500 152.7500 Du        
  36192 ****       137.0000 159.7500 153.0000 Du        
  36193 ****       137.0000 159.7500 153.2500 Du        
  36194 ****       137.0000 159.7500 153.5000 Du        
  36195 ****       137.0000 159.7500 154.7500 Du        
  36196 ****       137.0000 159.7500 155.0000 Du        
  36197 ****       137.0000 160.0000 152.7500 Du        
  36198 ****       137.0000 160.0000 153.0000 Du        
  36199 ****       137.0000 160.0000 153.2500 Du        
  36200 ****       137.0000 160.0000 153.5000 Du        
  36201 ****       137.0000 160.0000 153.7500 Du        
  36202 ****       137.0000 160.0000 154.0000 Du        
  36203 ****       137.0000 160.0000 154.2500 Du        
  36204 ****       137.0000 160.0000 154.5000 Du        
  36205 ****       137.0000 160.0000 154.7500 Du        
  36206 ****       137.0000 160.0000 155.0000 Du        
  36207 ****       137.0000 160.0000 155.2500 Du        
  36208 ****       137.0000 160.2500 152.7500 Du        
  36209 ****       137.0000 160.2500 153.0000 Du        
  36210 ****       137.0000 160.2500 153.2500 Du        
  36211 ****       137.0000 160.2500 153.5000 Du        
  36212 ****       137.0000 160.2500 153.7500 Du        
  36213 ****       137.0000 160.2500 154.0000 Du        
  36214 ****       137.0000 160.2500 154.2500 Du        
  36215 ****       137.0000 160.2500 154.5000 Du        
  36216 ****       137.0000 160.2500 154.7500 Du        
  36217 ****       137.0000 160.2500 155.0000 Du        
  36218 ****       137.0000 160.2500 155.2500 Du        
  36219 ****       137.0000 160.5000 152.7500 Du        
  36220 ****       137.0000 160.5000 153.0000 Du        
  36221 ****       137.0000 160.5000 153.2500 Du        
  36222 ****       137.0000 160.5000 153.5000 Du        
  36223 ****       137.0000 160.5000 153.7500 Du        
  36224 ****       137.0000 160.5000 154.0000 Du        
  36225 ****       137.0000 160.5000 154.2500 Du        
  36226 ****       137.0000 160.5000 154.5000 Du        
  36227 ****       137.0000 160.5000 154.7500 Du        
  36228 ****       137.0000 160.5000 155.0000 Du        
  36229 ****       137.0000 160.5000 155.2500 Du        
  36230 ****       137.0000 160.5000 155.5000 Du        
  36231 ****       137.0000 160.7500 152.7500 Du        
  36232 ****       137.0000 160.7500 153.0000 Du        
  36233 ****       137.0000 160.7500 153.2500 Du        
  36234 ****       137.0000 160.7500 153.5000 Du        
  36235 ****       137.0000 160.7500 153.7500 Du        
  36236 ****       137.0000 160.7500 154.0000 Du        
  36237 ****       137.0000 160.7500 154.2500 Du        
  36238 ****       137.0000 160.7500 154.5000 Du        
  36239 ****       137.0000 160.7500 154.7500 Du        
  36240 ****       137.0000 160.7500 155.0000 Du        
  36241 ****       137.0000 160.7500 155.2500 Du        
  36242 ****       137.0000 160.7500 155.5000 Du        
  36243 ****       137.0000 161.0000 152.7500 Du        
  36244 ****       137.0000 161.0000 153.0000 Du        
  36245 ****       137.0000 161.0000 153.2500 Du        
  36246 ****       137.0000 161.0000 153.5000 Du        
  36247 ****       137.0000 161.0000 153.7500 Du        
  36248 ****       137.0000 161.0000 154.0000 Du        
  36249 ****       137.0000 161.0000 154.2500 Du        
  36250 ****       137.0000 161.0000 154.5000 Du        
  36251 ****       137.0000 161.0000 154.7500 Du        
  36252 ****       137.0000 161.0000 155.0000 Du        
  36253 ****       137.0000 161.0000 155.2500 Du        
  36254 ****       137.0000 161.0000 155.5000 Du        
  36255 ****       137.0000 161.2500 152.7500 Du        
  36256 ****       137.0000 161.2500 153.0000 Du        
  36257 ****       137.0000 161.2500 153.2500 Du        
  36258 ****       137.0000 161.2500 153.5000 Du        
  36259 ****       137.0000 161.2500 153.7500 Du        
  36260 ****       137.0000 161.2500 154.0000 Du        
  36261 ****       137.0000 161.2500 154.2500 Du        
  36262 ****       137.0000 161.2500 154.5000 Du        
  36263 ****       137.0000 161.2500 154.7500 Du        
  36264 ****       137.0000 161.2500 155.0000 Du        
  36265 ****       137.0000 161.2500 155.2500 Du        
  36266 ****       137.0000 161.2500 155.5000 Du        
  36267 ****       137.0000 161.5000 153.0000 Du        
  36268 ****       137.0000 161.5000 153.2500 Du        
  36269 ****       137.0000 161.5000 153.5000 Du        
  36270 ****       137.0000 161.5000 153.7500 Du        
  36271 ****       137.0000 161.5000 154.0000 Du        
  36272 ****       137.0000 161.5000 154.2500 Du        
  36273 ****       137.0000 161.5000 154.5000 Du        
  36274 ****       137.0000 161.5000 154.7500 Du        
  36275 ****       137.0000 161.5000 155.0000 Du        
  36276 ****       137.0000 161.7500 153.7500 Du        
  36277 ****       137.2500 125.2500 101.7500 Du        
  36278 ****       137.2500 125.5000 101.5000 Du        
  36279 ****       137.2500 125.5000 101.7500 Du        
  36280 ****       137.2500 125.5000 102.0000 Du        
  36281 ****       137.2500 125.5000 102.2500 Du        
  36282 ****       137.2500 125.5000 102.5000 Du        
  36283 ****       137.2500 125.5000 102.7500 Du        
  36284 ****       137.2500 125.7500 101.2500 Du        
  36285 ****       137.2500 125.7500 101.5000 Du        
  36286 ****       137.2500 125.7500 101.7500 Du        
  36287 ****       137.2500 125.7500 102.0000 Du        
  36288 ****       137.2500 125.7500 102.2500 Du        
  36289 ****       137.2500 125.7500 102.5000 Du        
  36290 ****       137.2500 125.7500 102.7500 Du        
  36291 ****       137.2500 125.7500 103.0000 Du        
  36292 ****       137.2500 125.7500 103.2500 Du        
  36293 ****       137.2500 126.0000 101.0000 Du        
  36294 ****       137.2500 126.0000 101.2500 Du        
  36295 ****       137.2500 126.0000 101.5000 Du        
  36296 ****       137.2500 126.0000 101.7500 Du        
  36297 ****       137.2500 126.0000 102.0000 Du        
  36298 ****       137.2500 126.0000 102.2500 Du        
  36299 ****       137.2500 126.0000 102.5000 Du        
  36300 ****       137.2500 126.0000 102.7500 Du        
  36301 ****       137.2500 126.0000 103.0000 Du        
  36302 ****       137.2500 126.0000 103.2500 Du        
  36303 ****       137.2500 126.0000 103.5000 Du        
  36304 ****       137.2500 126.0000 103.7500 Du        
  36305 ****       137.2500 126.0000 104.0000 Du        
  36306 ****       137.2500 126.2500 101.0000 Du        
  36307 ****       137.2500 126.2500 101.2500 Du        
  36308 ****       137.2500 126.2500 101.5000 Du        
  36309 ****       137.2500 126.2500 101.7500 Du        
  36310 ****       137.2500 126.2500 102.0000 Du        
  36311 ****       137.2500 126.2500 102.2500 Du        
  36312 ****       137.2500 126.2500 102.5000 Du        
  36313 ****       137.2500 126.2500 102.7500 Du        
  36314 ****       137.2500 126.2500 103.0000 Du        
  36315 ****       137.2500 126.2500 103.2500 Du        
  36316 ****       137.2500 126.2500 103.5000 Du        
  36317 ****       137.2500 126.2500 103.7500 Du        
  36318 ****       137.2500 126.2500 104.0000 Du        
  36319 ****       137.2500 126.2500 104.2500 Du        
  36320 ****       137.2500 126.5000 101.0000 Du        
  36321 ****       137.2500 126.5000 101.2500 Du        
  36322 ****       137.2500 126.5000 101.5000 Du        
  36323 ****       137.2500 126.5000 101.7500 Du        
  36324 ****       137.2500 126.5000 102.0000 Du        
  36325 ****       137.2500 126.5000 102.2500 Du        
  36326 ****       137.2500 126.5000 102.5000 Du        
  36327 ****       137.2500 126.5000 102.7500 Du        
  36328 ****       137.2500 126.5000 103.0000 Du        
  36329 ****       137.2500 126.5000 103.2500 Du        
  36330 ****       137.2500 126.5000 103.5000 Du        
  36331 ****       137.2500 126.5000 103.7500 Du        
  36332 ****       137.2500 126.5000 104.0000 Du        
  36333 ****       137.2500 126.5000 104.2500 Du        
  36334 ****       137.2500 126.5000 104.5000 Du        
  36335 ****       137.2500 126.7500 101.2500 Du        
  36336 ****       137.2500 126.7500 101.5000 Du        
  36337 ****       137.2500 126.7500 101.7500 Du        
  36338 ****       137.2500 126.7500 102.0000 Du        
  36339 ****       137.2500 126.7500 102.2500 Du        
  36340 ****       137.2500 126.7500 102.5000 Du        
  36341 ****       137.2500 126.7500 102.7500 Du        
  36342 ****       137.2500 126.7500 103.0000 Du        
  36343 ****       137.2500 126.7500 103.2500 Du        
  36344 ****       137.2500 126.7500 103.5000 Du        
  36345 ****       137.2500 126.7500 103.7500 Du        
  36346 ****       137.2500 126.7500 104.0000 Du        
  36347 ****       137.2500 126.7500 104.2500 Du        
  36348 ****       137.2500 126.7500 104.5000 Du        
  36349 ****       137.2500 127.0000  96.0000 Du        
  36350 ****       137.2500 127.0000  96.7500 Du        
  36351 ****       137.2500 127.0000  97.0000 Du        
  36352 ****       137.2500 127.0000  97.2500 Du        
  36353 ****       137.2500 127.0000  97.5000 Du        
  36354 ****       137.2500 127.0000  97.7500 Du        
  36355 ****       137.2500 127.0000  98.0000 Du        
  36356 ****       137.2500 127.0000 101.2500 Du        
  36357 ****       137.2500 127.0000 101.5000 Du        
  36358 ****       137.2500 127.0000 101.7500 Du        
  36359 ****       137.2500 127.0000 102.0000 Du        
  36360 ****       137.2500 127.0000 102.2500 Du        
  36361 ****       137.2500 127.0000 102.5000 Du        
  36362 ****       137.2500 127.0000 102.7500 Du        
  36363 ****       137.2500 127.0000 103.0000 Du        
  36364 ****       137.2500 127.0000 103.2500 Du        
  36365 ****       137.2500 127.0000 103.5000 Du        
  36366 ****       137.2500 127.0000 103.7500 Du        
  36367 ****       137.2500 127.0000 104.0000 Du        
  36368 ****       137.2500 127.0000 104.2500 Du        
  36369 ****       137.2500 127.0000 104.5000 Du        
  36370 ****       137.2500 127.2500  95.7500 Du        
  36371 ****       137.2500 127.2500  96.0000 Du        
  36372 ****       137.2500 127.2500  96.7500 Du        
  36373 ****       137.2500 127.2500  97.0000 Du        
  36374 ****       137.2500 127.2500  97.2500 Du        
  36375 ****       137.2500 127.2500  97.5000 Du        
  36376 ****       137.2500 127.2500  97.7500 Du        
  36377 ****       137.2500 127.2500  98.0000 Du        
  36378 ****       137.2500 127.2500 101.5000 Du        
  36379 ****       137.2500 127.2500 101.7500 Du        
  36380 ****       137.2500 127.2500 102.0000 Du        
  36381 ****       137.2500 127.2500 102.2500 Du        
  36382 ****       137.2500 127.2500 102.5000 Du        
  36383 ****       137.2500 127.2500 102.7500 Du        
  36384 ****       137.2500 127.2500 103.0000 Du        
  36385 ****       137.2500 127.2500 103.2500 Du        
  36386 ****       137.2500 127.2500 103.5000 Du        
  36387 ****       137.2500 127.2500 103.7500 Du        
  36388 ****       137.2500 127.2500 104.0000 Du        
  36389 ****       137.2500 127.2500 104.2500 Du        
  36390 ****       137.2500 127.2500 104.5000 Du        
  36391 ****       137.2500 127.5000  95.7500 Du        
  36392 ****       137.2500 127.5000  96.0000 Du        
  36393 ****       137.2500 127.5000  96.7500 Du        
  36394 ****       137.2500 127.5000  97.0000 Du        
  36395 ****       137.2500 127.5000  97.2500 Du        
  36396 ****       137.2500 127.5000  97.5000 Du        
  36397 ****       137.2500 127.5000  97.7500 Du        
  36398 ****       137.2500 127.5000 101.5000 Du        
  36399 ****       137.2500 127.5000 101.7500 Du        
  36400 ****       137.2500 127.5000 102.0000 Du        
  36401 ****       137.2500 127.5000 102.2500 Du        
  36402 ****       137.2500 127.5000 102.5000 Du        
  36403 ****       137.2500 127.5000 102.7500 Du        
  36404 ****       137.2500 127.5000 103.0000 Du        
  36405 ****       137.2500 127.5000 103.2500 Du        
  36406 ****       137.2500 127.5000 103.5000 Du        
  36407 ****       137.2500 127.5000 103.7500 Du        
  36408 ****       137.2500 127.7500  95.7500 Du        
  36409 ****       137.2500 127.7500  96.0000 Du        
  36410 ****       137.2500 127.7500  96.7500 Du        
  36411 ****       137.2500 127.7500  97.0000 Du        
  36412 ****       137.2500 127.7500  97.2500 Du        
  36413 ****       137.2500 127.7500 101.7500 Du        
  36414 ****       137.2500 127.7500 102.0000 Du        
  36415 ****       137.2500 127.7500 102.2500 Du        
  36416 ****       137.2500 127.7500 102.5000 Du        
  36417 ****       137.2500 127.7500 148.7500 Du        
  36418 ****       137.2500 128.0000 148.7500 Du        
  36419 ****       137.2500 128.0000 149.0000 Du        
  36420 ****       137.2500 128.2500 148.7500 Du        
  36421 ****       137.2500 128.2500 149.0000 Du        
  36422 ****       137.2500 128.2500 149.2500 Du        
  36423 ****       137.2500 128.5000 148.7500 Du        
  36424 ****       137.2500 128.5000 149.0000 Du        
  36425 ****       137.2500 128.5000 149.2500 Du        
  36426 ****       137.2500 128.5000 149.5000 Du        
  36427 ****       137.2500 128.7500 148.7500 Du        
  36428 ****       137.2500 128.7500 149.0000 Du        
  36429 ****       137.2500 128.7500 149.2500 Du        
  36430 ****       137.2500 128.7500 149.5000 Du        
  36431 ****       137.2500 128.7500 149.7500 Du        
  36432 ****       137.2500 128.7500 150.0000 Du        
  36433 ****       137.2500 129.0000 149.0000 Du        
  36434 ****       137.2500 129.0000 149.2500 Du        
  36435 ****       137.2500 129.0000 149.5000 Du        
  36436 ****       137.2500 129.0000 149.7500 Du        
  36437 ****       137.2500 129.0000 150.0000 Du        
  36438 ****       137.2500 129.2500 149.5000 Du        
  36439 ****       137.2500 129.2500 149.7500 Du        
  36440 ****       137.2500 129.2500 150.0000 Du        
  36441 ****       137.2500 133.7500 102.2500 Du        
  36442 ****       137.2500 134.0000 102.2500 Du        
  36443 ****       137.2500 134.0000 102.5000 Du        
  36444 ****       137.2500 134.0000 102.7500 Du        
  36445 ****       137.2500 134.0000 103.0000 Du        
  36446 ****       137.2500 134.2500 102.5000 Du        
  36447 ****       137.2500 134.2500 102.7500 Du        
  36448 ****       137.2500 134.2500 103.0000 Du        
  36449 ****       137.2500 134.2500 103.2500 Du        
  36450 ****       137.2500 134.2500 151.5000 Du        
  36451 ****       137.2500 134.2500 151.7500 Du        
  36452 ****       137.2500 134.2500 152.0000 Du        
  36453 ****       137.2500 134.2500 152.2500 Du        
  36454 ****       137.2500 134.2500 152.5000 Du        
  36455 ****       137.2500 134.2500 152.7500 Du        
  36456 ****       137.2500 134.2500 153.0000 Du        
  36457 ****       137.2500 134.2500 153.2500 Du        
  36458 ****       137.2500 134.2500 153.5000 Du        
  36459 ****       137.2500 134.5000 102.7500 Du        
  36460 ****       137.2500 134.5000 103.0000 Du        
  36461 ****       137.2500 134.5000 103.2500 Du        
  36462 ****       137.2500 134.5000 103.5000 Du        
  36463 ****       137.2500 134.5000 151.5000 Du        
  36464 ****       137.2500 134.5000 151.7500 Du        
  36465 ****       137.2500 134.5000 152.0000 Du        
  36466 ****       137.2500 134.5000 152.2500 Du        
  36467 ****       137.2500 134.5000 152.5000 Du        
  36468 ****       137.2500 134.5000 152.7500 Du        
  36469 ****       137.2500 134.5000 153.0000 Du        
  36470 ****       137.2500 134.5000 153.2500 Du        
  36471 ****       137.2500 134.5000 153.5000 Du        
  36472 ****       137.2500 134.5000 153.7500 Du        
  36473 ****       137.2500 134.7500 103.0000 Du        
  36474 ****       137.2500 134.7500 103.2500 Du        
  36475 ****       137.2500 134.7500 103.5000 Du        
  36476 ****       137.2500 134.7500 151.0000 Du        
  36477 ****       137.2500 134.7500 151.2500 Du        
  36478 ****       137.2500 134.7500 151.5000 Du        
  36479 ****       137.2500 134.7500 151.7500 Du        
  36480 ****       137.2500 134.7500 152.0000 Du        
  36481 ****       137.2500 134.7500 152.2500 Du        
  36482 ****       137.2500 134.7500 152.5000 Du        
  36483 ****       137.2500 134.7500 152.7500 Du        
  36484 ****       137.2500 134.7500 153.0000 Du        
  36485 ****       137.2500 134.7500 153.2500 Du        
  36486 ****       137.2500 134.7500 153.5000 Du        
  36487 ****       137.2500 134.7500 153.7500 Du        
  36488 ****       137.2500 135.0000 151.0000 Du        
  36489 ****       137.2500 135.0000 151.2500 Du        
  36490 ****       137.2500 135.0000 151.5000 Du        
  36491 ****       137.2500 135.0000 151.7500 Du        
  36492 ****       137.2500 135.0000 152.0000 Du        
  36493 ****       137.2500 135.0000 152.2500 Du        
  36494 ****       137.2500 135.0000 152.5000 Du        
  36495 ****       137.2500 135.0000 152.7500 Du        
  36496 ****       137.2500 135.0000 153.0000 Du        
  36497 ****       137.2500 135.0000 153.2500 Du        
  36498 ****       137.2500 135.0000 153.5000 Du        
  36499 ****       137.2500 135.2500 150.7500 Du        
  36500 ****       137.2500 135.2500 151.0000 Du        
  36501 ****       137.2500 135.2500 151.2500 Du        
  36502 ****       137.2500 135.2500 151.5000 Du        
  36503 ****       137.2500 135.2500 151.7500 Du        
  36504 ****       137.2500 135.2500 152.0000 Du        
  36505 ****       137.2500 135.2500 152.2500 Du        
  36506 ****       137.2500 135.2500 152.5000 Du        
  36507 ****       137.2500 135.2500 152.7500 Du        
  36508 ****       137.2500 135.5000 150.5000 Du        
  36509 ****       137.2500 135.5000 150.7500 Du        
  36510 ****       137.2500 135.5000 151.0000 Du        
  36511 ****       137.2500 135.5000 151.2500 Du        
  36512 ****       137.2500 135.5000 151.5000 Du        
  36513 ****       137.2500 135.5000 151.7500 Du        
  36514 ****       137.2500 135.5000 152.0000 Du        
  36515 ****       137.2500 135.7500 150.5000 Du        
  36516 ****       137.2500 135.7500 150.7500 Du        
  36517 ****       137.2500 135.7500 151.0000 Du        
  36518 ****       137.2500 135.7500 151.2500 Du        
  36519 ****       137.2500 135.7500 151.5000 Du        
  36520 ****       137.2500 135.7500 151.7500 Du        
  36521 ****       137.2500 136.0000 150.5000 Du        
  36522 ****       137.2500 136.0000 150.7500 Du        
  36523 ****       137.2500 136.0000 151.0000 Du        
  36524 ****       137.2500 136.0000 151.2500 Du        
  36525 ****       137.2500 136.2500 150.5000 Du        
  36526 ****       137.2500 136.2500 150.7500 Du        
  36527 ****       137.2500 138.0000  91.2500 Du        
  36528 ****       137.2500 138.0000  91.5000 Du        
  36529 ****       137.2500 138.2500  91.5000 Du        
  36530 ****       137.2500 138.2500  91.7500 Du        
  36531 ****       137.2500 138.5000  91.5000 Du        
  36532 ****       137.2500 138.5000  91.7500 Du        
  36533 ****       137.2500 138.7500  91.7500 Du        
  36534 ****       137.2500 138.7500  92.0000 Du        
  36535 ****       137.2500 139.0000  91.7500 Du        
  36536 ****       137.2500 139.0000  92.0000 Du        
  36537 ****       137.2500 139.0000  92.2500 Du        
  36538 ****       137.2500 139.2500  91.7500 Du        
  36539 ****       137.2500 139.2500  92.0000 Du        
  36540 ****       137.2500 139.2500  92.2500 Du        
  36541 ****       137.2500 139.5000  92.0000 Du        
  36542 ****       137.2500 139.7500  92.0000 Du        
  36543 ****       137.2500 139.7500  92.2500 Du        
  36544 ****       137.2500 140.0000  92.0000 Du        
  36545 ****       137.2500 140.0000  92.2500 Du        
  36546 ****       137.2500 140.2500  92.0000 Du        
  36547 ****       137.2500 141.5000  94.5000 Du        
  36548 ****       137.2500 141.5000  94.7500 Du        
  36549 ****       137.2500 141.7500  93.0000 Du        
  36550 ****       137.2500 141.7500  93.2500 Du        
  36551 ****       137.2500 141.7500  93.5000 Du        
  36552 ****       137.2500 141.7500  93.7500 Du        
  36553 ****       137.2500 141.7500  94.0000 Du        
  36554 ****       137.2500 141.7500  94.2500 Du        
  36555 ****       137.2500 141.7500  94.5000 Du        
  36556 ****       137.2500 141.7500  94.7500 Du        
  36557 ****       137.2500 142.0000  92.7500 Du        
  36558 ****       137.2500 142.0000  93.0000 Du        
  36559 ****       137.2500 142.0000  93.2500 Du        
  36560 ****       137.2500 142.0000  93.5000 Du        
  36561 ****       137.2500 142.0000  93.7500 Du        
  36562 ****       137.2500 142.0000  94.0000 Du        
  36563 ****       137.2500 142.0000  94.2500 Du        
  36564 ****       137.2500 142.0000  94.5000 Du        
  36565 ****       137.2500 142.2500  92.7500 Du        
  36566 ****       137.2500 142.2500  93.0000 Du        
  36567 ****       137.2500 142.2500  93.2500 Du        
  36568 ****       137.2500 142.2500  93.5000 Du        
  36569 ****       137.2500 142.2500  93.7500 Du        
  36570 ****       137.2500 142.2500  94.0000 Du        
  36571 ****       137.2500 142.5000  93.0000 Du        
  36572 ****       137.2500 142.5000  93.2500 Du        
  36573 ****       137.2500 142.5000  93.5000 Du        
  36574 ****       137.2500 142.5000  93.7500 Du        
  36575 ****       137.2500 142.7500  92.7500 Du        
  36576 ****       137.2500 142.7500  93.0000 Du        
  36577 ****       137.2500 142.7500  93.2500 Du        
  36578 ****       137.2500 142.7500  93.5000 Du        
  36579 ****       137.2500 143.0000  92.7500 Du        
  36580 ****       137.2500 143.0000  93.0000 Du        
  36581 ****       137.2500 143.0000  93.2500 Du        
  36582 ****       137.2500 143.2500  92.7500 Du        
  36583 ****       137.2500 143.2500  93.0000 Du        
  36584 ****       137.2500 143.2500 130.5000 Du        
  36585 ****       137.2500 143.2500 130.7500 Du        
  36586 ****       137.2500 143.5000  92.7500 Du        
  36587 ****       137.2500 143.5000 130.2500 Du        
  36588 ****       137.2500 143.5000 130.5000 Du        
  36589 ****       137.2500 143.5000 130.7500 Du        
  36590 ****       137.2500 143.5000 131.0000 Du        
  36591 ****       137.2500 143.7500  92.5000 Du        
  36592 ****       137.2500 143.7500  92.7500 Du        
  36593 ****       137.2500 143.7500 130.0000 Du        
  36594 ****       137.2500 143.7500 130.2500 Du        
  36595 ****       137.2500 143.7500 130.5000 Du        
  36596 ****       137.2500 143.7500 130.7500 Du        
  36597 ****       137.2500 143.7500 131.0000 Du        
  36598 ****       137.2500 143.7500 131.2500 Du        
  36599 ****       137.2500 144.0000  92.2500 Du        
  36600 ****       137.2500 144.0000  92.5000 Du        
  36601 ****       137.2500 144.0000  92.7500 Du        
  36602 ****       137.2500 144.0000 129.7500 Du        
  36603 ****       137.2500 144.0000 130.0000 Du        
  36604 ****       137.2500 144.0000 130.2500 Du        
  36605 ****       137.2500 144.0000 130.5000 Du        
  36606 ****       137.2500 144.0000 130.7500 Du        
  36607 ****       137.2500 144.0000 131.0000 Du        
  36608 ****       137.2500 144.0000 131.2500 Du        
  36609 ****       137.2500 144.0000 131.5000 Du        
  36610 ****       137.2500 144.2500  92.2500 Du        
  36611 ****       137.2500 144.2500  92.5000 Du        
  36612 ****       137.2500 144.2500  92.7500 Du        
  36613 ****       137.2500 144.2500 129.2500 Du        
  36614 ****       137.2500 144.2500 129.5000 Du        
  36615 ****       137.2500 144.2500 129.7500 Du        
  36616 ****       137.2500 144.2500 130.0000 Du        
  36617 ****       137.2500 144.2500 130.2500 Du        
  36618 ****       137.2500 144.2500 130.5000 Du        
  36619 ****       137.2500 144.2500 130.7500 Du        
  36620 ****       137.2500 144.2500 131.0000 Du        
  36621 ****       137.2500 144.2500 131.2500 Du        
  36622 ****       137.2500 144.2500 131.5000 Du        
  36623 ****       137.2500 144.2500 131.7500 Du        
  36624 ****       137.2500 144.5000  92.5000 Du        
  36625 ****       137.2500 144.7500  92.0000 Du        
  36626 ****       137.2500 144.7500  92.2500 Du        
  36627 ****       137.2500 152.0000 106.7500 Du        
  36628 ****       137.2500 152.0000 107.0000 Du        
  36629 ****       137.2500 152.0000 107.2500 Du        
  36630 ****       137.2500 152.2500 106.5000 Du        
  36631 ****       137.2500 152.2500 106.7500 Du        
  36632 ****       137.2500 152.2500 107.0000 Du        
  36633 ****       137.2500 152.2500 107.2500 Du        
  36634 ****       137.2500 152.2500 107.5000 Du        
  36635 ****       137.2500 152.2500 107.7500 Du        
  36636 ****       137.2500 152.5000 106.2500 Du        
  36637 ****       137.2500 152.5000 106.5000 Du        
  36638 ****       137.2500 152.5000 106.7500 Du        
  36639 ****       137.2500 152.5000 107.0000 Du        
  36640 ****       137.2500 152.5000 107.2500 Du        
  36641 ****       137.2500 152.5000 107.5000 Du        
  36642 ****       137.2500 152.5000 107.7500 Du        
  36643 ****       137.2500 152.5000 108.0000 Du        
  36644 ****       137.2500 152.5000 108.2500 Du        
  36645 ****       137.2500 152.7500 106.0000 Du        
  36646 ****       137.2500 152.7500 106.2500 Du        
  36647 ****       137.2500 152.7500 106.5000 Du        
  36648 ****       137.2500 152.7500 106.7500 Du        
  36649 ****       137.2500 152.7500 107.0000 Du        
  36650 ****       137.2500 152.7500 107.2500 Du        
  36651 ****       137.2500 152.7500 107.5000 Du        
  36652 ****       137.2500 152.7500 107.7500 Du        
  36653 ****       137.2500 152.7500 108.0000 Du        
  36654 ****       137.2500 152.7500 108.2500 Du        
  36655 ****       137.2500 153.0000 106.0000 Du        
  36656 ****       137.2500 153.0000 106.2500 Du        
  36657 ****       137.2500 153.0000 106.5000 Du        
  36658 ****       137.2500 153.0000 106.7500 Du        
  36659 ****       137.2500 153.0000 107.0000 Du        
  36660 ****       137.2500 153.0000 107.2500 Du        
  36661 ****       137.2500 153.0000 107.5000 Du        
  36662 ****       137.2500 153.0000 107.7500 Du        
  36663 ****       137.2500 153.0000 108.0000 Du        
  36664 ****       137.2500 153.0000 108.2500 Du        
  36665 ****       137.2500 153.0000 108.5000 Du        
  36666 ****       137.2500 153.0000 108.7500 Du        
  36667 ****       137.2500 153.2500 105.7500 Du        
  36668 ****       137.2500 153.2500 106.0000 Du        
  36669 ****       137.2500 153.2500 106.2500 Du        
  36670 ****       137.2500 153.2500 106.5000 Du        
  36671 ****       137.2500 153.2500 106.7500 Du        
  36672 ****       137.2500 153.2500 107.0000 Du        
  36673 ****       137.2500 153.2500 107.2500 Du        
  36674 ****       137.2500 153.2500 107.5000 Du        
  36675 ****       137.2500 153.2500 107.7500 Du        
  36676 ****       137.2500 153.2500 108.0000 Du        
  36677 ****       137.2500 153.2500 108.2500 Du        
  36678 ****       137.2500 153.2500 108.5000 Du        
  36679 ****       137.2500 153.2500 108.7500 Du        
  36680 ****       137.2500 153.5000 105.7500 Du        
  36681 ****       137.2500 153.5000 106.0000 Du        
  36682 ****       137.2500 153.5000 106.2500 Du        
  36683 ****       137.2500 153.5000 106.5000 Du        
  36684 ****       137.2500 153.5000 106.7500 Du        
  36685 ****       137.2500 153.5000 107.0000 Du        
  36686 ****       137.2500 153.5000 107.2500 Du        
  36687 ****       137.2500 153.5000 107.5000 Du        
  36688 ****       137.2500 153.5000 107.7500 Du        
  36689 ****       137.2500 153.5000 108.0000 Du        
  36690 ****       137.2500 153.5000 108.2500 Du        
  36691 ****       137.2500 153.7500 105.7500 Du        
  36692 ****       137.2500 153.7500 106.0000 Du        
  36693 ****       137.2500 153.7500 106.2500 Du        
  36694 ****       137.2500 153.7500 106.5000 Du        
  36695 ****       137.2500 153.7500 106.7500 Du        
  36696 ****       137.2500 153.7500 107.0000 Du        
  36697 ****       137.2500 153.7500 107.2500 Du        
  36698 ****       137.2500 153.7500 107.5000 Du        
  36699 ****       137.2500 153.7500 107.7500 Du        
  36700 ****       137.2500 153.7500 108.0000 Du        
  36701 ****       137.2500 153.7500 108.2500 Du        
  36702 ****       137.2500 154.0000 105.5000 Du        
  36703 ****       137.2500 154.0000 105.7500 Du        
  36704 ****       137.2500 154.0000 106.0000 Du        
  36705 ****       137.2500 154.0000 106.2500 Du        
  36706 ****       137.2500 154.0000 106.5000 Du        
  36707 ****       137.2500 154.0000 106.7500 Du        
  36708 ****       137.2500 154.0000 107.0000 Du        
  36709 ****       137.2500 154.0000 107.2500 Du        
  36710 ****       137.2500 154.0000 107.5000 Du        
  36711 ****       137.2500 154.0000 107.7500 Du        
  36712 ****       137.2500 154.0000 108.0000 Du        
  36713 ****       137.2500 154.2500 105.5000 Du        
  36714 ****       137.2500 154.2500 105.7500 Du        
  36715 ****       137.2500 154.2500 106.0000 Du        
  36716 ****       137.2500 154.2500 106.2500 Du        
  36717 ****       137.2500 154.2500 106.5000 Du        
  36718 ****       137.2500 154.2500 106.7500 Du        
  36719 ****       137.2500 154.2500 107.0000 Du        
  36720 ****       137.2500 154.2500 107.2500 Du        
  36721 ****       137.2500 154.5000 105.5000 Du        
  36722 ****       137.2500 154.5000 105.7500 Du        
  36723 ****       137.2500 154.5000 106.0000 Du        
  36724 ****       137.2500 154.5000 106.2500 Du        
  36725 ****       137.2500 154.5000 106.5000 Du        
  36726 ****       137.2500 154.7500 105.5000 Du        
  36727 ****       137.2500 154.7500 105.7500 Du        
  36728 ****       137.2500 154.7500 106.0000 Du        
  36729 ****       137.2500 154.7500 106.2500 Du        
  36730 ****       137.2500 155.0000 105.5000 Du        
  36731 ****       137.2500 155.0000 105.7500 Du        
  36732 ****       137.2500 156.0000 144.5000 Du        
  36733 ****       137.2500 156.0000 144.7500 Du        
  36734 ****       137.2500 156.2500 144.5000 Du        
  36735 ****       137.2500 156.2500 144.7500 Du        
  36736 ****       137.2500 156.2500 145.0000 Du        
  36737 ****       137.2500 156.5000 144.2500 Du        
  36738 ****       137.2500 156.5000 144.5000 Du        
  36739 ****       137.2500 156.5000 144.7500 Du        
  36740 ****       137.2500 156.5000 145.0000 Du        
  36741 ****       137.2500 156.7500 144.2500 Du        
  36742 ****       137.2500 156.7500 144.5000 Du        
  36743 ****       137.2500 156.7500 144.7500 Du        
  36744 ****       137.2500 156.7500 145.0000 Du        
  36745 ****       137.2500 156.7500 145.2500 Du        
  36746 ****       137.2500 157.0000 144.5000 Du        
  36747 ****       137.2500 157.0000 144.7500 Du        
  36748 ****       137.2500 157.0000 145.0000 Du        
  36749 ****       137.2500 157.0000 145.2500 Du        
  36750 ****       137.2500 157.2500 144.5000 Du        
  36751 ****       137.2500 157.2500 144.7500 Du        
  36752 ****       137.2500 157.2500 145.0000 Du        
  36753 ****       137.2500 157.5000 144.5000 Du        
  36754 ****       137.2500 157.5000 144.7500 Du        
  36755 ****       137.2500 159.7500 152.7500 Du        
  36756 ****       137.2500 159.7500 153.0000 Du        
  36757 ****       137.2500 159.7500 153.2500 Du        
  36758 ****       137.2500 159.7500 153.5000 Du        
  36759 ****       137.2500 159.7500 153.7500 Du        
  36760 ****       137.2500 159.7500 154.0000 Du        
  36761 ****       137.2500 159.7500 154.7500 Du        
  36762 ****       137.2500 159.7500 155.0000 Du        
  36763 ****       137.2500 159.7500 155.2500 Du        
  36764 ****       137.2500 159.7500 155.5000 Du        
  36765 ****       137.2500 160.0000 152.7500 Du        
  36766 ****       137.2500 160.0000 153.0000 Du        
  36767 ****       137.2500 160.0000 153.2500 Du        
  36768 ****       137.2500 160.0000 153.5000 Du        
  36769 ****       137.2500 160.0000 153.7500 Du        
  36770 ****       137.2500 160.0000 154.0000 Du        
  36771 ****       137.2500 160.0000 154.2500 Du        
  36772 ****       137.2500 160.0000 154.5000 Du        
  36773 ****       137.2500 160.0000 154.7500 Du        
  36774 ****       137.2500 160.0000 155.0000 Du        
  36775 ****       137.2500 160.0000 155.2500 Du        
  36776 ****       137.2500 160.0000 155.5000 Du        
  36777 ****       137.2500 160.0000 155.7500 Du        
  36778 ****       137.2500 160.2500 152.7500 Du        
  36779 ****       137.2500 160.2500 153.0000 Du        
  36780 ****       137.2500 160.2500 153.2500 Du        
  36781 ****       137.2500 160.2500 153.5000 Du        
  36782 ****       137.2500 160.2500 153.7500 Du        
  36783 ****       137.2500 160.2500 154.0000 Du        
  36784 ****       137.2500 160.2500 154.2500 Du        
  36785 ****       137.2500 160.2500 154.5000 Du        
  36786 ****       137.2500 160.2500 154.7500 Du        
  36787 ****       137.2500 160.2500 155.0000 Du        
  36788 ****       137.2500 160.2500 155.2500 Du        
  36789 ****       137.2500 160.2500 155.5000 Du        
  36790 ****       137.2500 160.2500 155.7500 Du        
  36791 ****       137.2500 160.5000 152.7500 Du        
  36792 ****       137.2500 160.5000 153.0000 Du        
  36793 ****       137.2500 160.5000 153.2500 Du        
  36794 ****       137.2500 160.5000 153.5000 Du        
  36795 ****       137.2500 160.5000 153.7500 Du        
  36796 ****       137.2500 160.5000 154.0000 Du        
  36797 ****       137.2500 160.5000 154.2500 Du        
  36798 ****       137.2500 160.5000 154.5000 Du        
  36799 ****       137.2500 160.5000 154.7500 Du        
  36800 ****       137.2500 160.5000 155.0000 Du        
  36801 ****       137.2500 160.5000 155.2500 Du        
  36802 ****       137.2500 160.5000 155.5000 Du        
  36803 ****       137.2500 160.5000 155.7500 Du        
  36804 ****       137.2500 160.5000 156.0000 Du        
  36805 ****       137.2500 160.7500 152.7500 Du        
  36806 ****       137.2500 160.7500 153.0000 Du        
  36807 ****       137.2500 160.7500 153.2500 Du        
  36808 ****       137.2500 160.7500 153.5000 Du        
  36809 ****       137.2500 160.7500 153.7500 Du        
  36810 ****       137.2500 160.7500 154.0000 Du        
  36811 ****       137.2500 160.7500 154.2500 Du        
  36812 ****       137.2500 160.7500 154.5000 Du        
  36813 ****       137.2500 160.7500 154.7500 Du        
  36814 ****       137.2500 160.7500 155.0000 Du        
  36815 ****       137.2500 160.7500 155.2500 Du        
  36816 ****       137.2500 160.7500 155.5000 Du        
  36817 ****       137.2500 160.7500 155.7500 Du        
  36818 ****       137.2500 160.7500 156.0000 Du        
  36819 ****       137.2500 161.0000 152.7500 Du        
  36820 ****       137.2500 161.0000 153.0000 Du        
  36821 ****       137.2500 161.0000 153.2500 Du        
  36822 ****       137.2500 161.0000 153.5000 Du        
  36823 ****       137.2500 161.0000 153.7500 Du        
  36824 ****       137.2500 161.0000 154.0000 Du        
  36825 ****       137.2500 161.0000 154.2500 Du        
  36826 ****       137.2500 161.0000 154.5000 Du        
  36827 ****       137.2500 161.0000 154.7500 Du        
  36828 ****       137.2500 161.0000 155.0000 Du        
  36829 ****       137.2500 161.0000 155.2500 Du        
  36830 ****       137.2500 161.0000 155.5000 Du        
  36831 ****       137.2500 161.0000 155.7500 Du        
  36832 ****       137.2500 161.0000 156.0000 Du        
  36833 ****       137.2500 161.2500 153.5000 Du        
  36834 ****       137.2500 161.2500 153.7500 Du        
  36835 ****       137.2500 161.2500 154.0000 Du        
  36836 ****       137.2500 161.2500 154.2500 Du        
  36837 ****       137.2500 161.2500 154.5000 Du        
  36838 ****       137.2500 161.2500 154.7500 Du        
  36839 ****       137.2500 161.2500 155.0000 Du        
  36840 ****       137.2500 161.2500 155.2500 Du        
  36841 ****       137.2500 161.2500 155.5000 Du        
  36842 ****       137.5000 125.5000 101.7500 Du        
  36843 ****       137.5000 125.5000 102.5000 Du        
  36844 ****       137.5000 125.5000 102.7500 Du        
  36845 ****       137.5000 125.5000 103.0000 Du        
  36846 ****       137.5000 125.5000 103.2500 Du        
  36847 ****       137.5000 125.5000 103.5000 Du        
  36848 ****       137.5000 125.7500 101.5000 Du        
  36849 ****       137.5000 125.7500 101.7500 Du        
  36850 ****       137.5000 125.7500 102.0000 Du        
  36851 ****       137.5000 125.7500 102.2500 Du        
  36852 ****       137.5000 125.7500 102.5000 Du        
  36853 ****       137.5000 125.7500 102.7500 Du        
  36854 ****       137.5000 125.7500 103.0000 Du        
  36855 ****       137.5000 125.7500 103.2500 Du        
  36856 ****       137.5000 125.7500 103.5000 Du        
  36857 ****       137.5000 125.7500 103.7500 Du        
  36858 ****       137.5000 125.7500 104.0000 Du        
  36859 ****       137.5000 126.0000 101.2500 Du        
  36860 ****       137.5000 126.0000 101.5000 Du        
  36861 ****       137.5000 126.0000 101.7500 Du        
  36862 ****       137.5000 126.0000 102.0000 Du        
  36863 ****       137.5000 126.0000 102.2500 Du        
  36864 ****       137.5000 126.0000 102.5000 Du        
  36865 ****       137.5000 126.0000 102.7500 Du        
  36866 ****       137.5000 126.0000 103.0000 Du        
  36867 ****       137.5000 126.0000 103.2500 Du        
  36868 ****       137.5000 126.0000 103.5000 Du        
  36869 ****       137.5000 126.0000 103.7500 Du        
  36870 ****       137.5000 126.0000 104.0000 Du        
  36871 ****       137.5000 126.0000 104.2500 Du        
  36872 ****       137.5000 126.2500 101.0000 Du        
  36873 ****       137.5000 126.2500 101.2500 Du        
  36874 ****       137.5000 126.2500 101.5000 Du        
  36875 ****       137.5000 126.2500 101.7500 Du        
  36876 ****       137.5000 126.2500 102.0000 Du        
  36877 ****       137.5000 126.2500 102.2500 Du        
  36878 ****       137.5000 126.2500 102.5000 Du        
  36879 ****       137.5000 126.2500 102.7500 Du        
  36880 ****       137.5000 126.2500 103.0000 Du        
  36881 ****       137.5000 126.2500 103.2500 Du        
  36882 ****       137.5000 126.2500 103.5000 Du        
  36883 ****       137.5000 126.2500 103.7500 Du        
  36884 ****       137.5000 126.2500 104.0000 Du        
  36885 ****       137.5000 126.2500 104.2500 Du        
  36886 ****       137.5000 126.5000 101.0000 Du        
  36887 ****       137.5000 126.5000 101.2500 Du        
  36888 ****       137.5000 126.5000 101.5000 Du        
  36889 ****       137.5000 126.5000 101.7500 Du        
  36890 ****       137.5000 126.5000 102.0000 Du        
  36891 ****       137.5000 126.5000 102.2500 Du        
  36892 ****       137.5000 126.5000 102.5000 Du        
  36893 ****       137.5000 126.5000 102.7500 Du        
  36894 ****       137.5000 126.5000 103.0000 Du        
  36895 ****       137.5000 126.5000 103.2500 Du        
  36896 ****       137.5000 126.5000 103.5000 Du        
  36897 ****       137.5000 126.5000 103.7500 Du        
  36898 ****       137.5000 126.5000 104.0000 Du        
  36899 ****       137.5000 126.5000 104.2500 Du        
  36900 ****       137.5000 126.7500 101.0000 Du        
  36901 ****       137.5000 126.7500 101.2500 Du        
  36902 ****       137.5000 126.7500 101.5000 Du        
  36903 ****       137.5000 126.7500 101.7500 Du        
  36904 ****       137.5000 126.7500 102.0000 Du        
  36905 ****       137.5000 126.7500 102.2500 Du        
  36906 ****       137.5000 126.7500 102.5000 Du        
  36907 ****       137.5000 126.7500 102.7500 Du        
  36908 ****       137.5000 126.7500 103.0000 Du        
  36909 ****       137.5000 126.7500 103.2500 Du        
  36910 ****       137.5000 126.7500 103.5000 Du        
  36911 ****       137.5000 126.7500 103.7500 Du        
  36912 ****       137.5000 126.7500 104.0000 Du        
  36913 ****       137.5000 126.7500 104.2500 Du        
  36914 ****       137.5000 126.7500 104.5000 Du        
  36915 ****       137.5000 127.0000  97.2500 Du        
  36916 ****       137.5000 127.0000  97.5000 Du        
  36917 ****       137.5000 127.0000  97.7500 Du        
  36918 ****       137.5000 127.0000 101.0000 Du        
  36919 ****       137.5000 127.0000 101.2500 Du        
  36920 ****       137.5000 127.0000 101.5000 Du        
  36921 ****       137.5000 127.0000 101.7500 Du        
  36922 ****       137.5000 127.0000 102.0000 Du        
  36923 ****       137.5000 127.0000 102.2500 Du        
  36924 ****       137.5000 127.0000 102.5000 Du        
  36925 ****       137.5000 127.0000 102.7500 Du        
  36926 ****       137.5000 127.0000 103.0000 Du        
  36927 ****       137.5000 127.0000 103.2500 Du        
  36928 ****       137.5000 127.0000 103.5000 Du        
  36929 ****       137.5000 127.0000 103.7500 Du        
  36930 ****       137.5000 127.0000 104.0000 Du        
  36931 ****       137.5000 127.0000 104.2500 Du        
  36932 ****       137.5000 127.0000 104.5000 Du        
  36933 ****       137.5000 127.2500  96.7500 Du        
  36934 ****       137.5000 127.2500  97.0000 Du        
  36935 ****       137.5000 127.2500  97.2500 Du        
  36936 ****       137.5000 127.2500  97.5000 Du        
  36937 ****       137.5000 127.2500  97.7500 Du        
  36938 ****       137.5000 127.2500 101.2500 Du        
  36939 ****       137.5000 127.2500 101.5000 Du        
  36940 ****       137.5000 127.2500 101.7500 Du        
  36941 ****       137.5000 127.2500 102.0000 Du        
  36942 ****       137.5000 127.2500 102.2500 Du        
  36943 ****       137.5000 127.2500 102.5000 Du        
  36944 ****       137.5000 127.2500 102.7500 Du        
  36945 ****       137.5000 127.2500 103.0000 Du        
  36946 ****       137.5000 127.2500 103.2500 Du        
  36947 ****       137.5000 127.2500 103.5000 Du        
  36948 ****       137.5000 127.2500 103.7500 Du        
  36949 ****       137.5000 127.2500 104.0000 Du        
  36950 ****       137.5000 127.2500 104.2500 Du        
  36951 ****       137.5000 127.2500 104.5000 Du        
  36952 ****       137.5000 127.5000  95.7500 Du        
  36953 ****       137.5000 127.5000  96.0000 Du        
  36954 ****       137.5000 127.5000  96.7500 Du        
  36955 ****       137.5000 127.5000  97.0000 Du        
  36956 ****       137.5000 127.5000  97.2500 Du        
  36957 ****       137.5000 127.5000  97.5000 Du        
  36958 ****       137.5000 127.5000 101.5000 Du        
  36959 ****       137.5000 127.5000 101.7500 Du        
  36960 ****       137.5000 127.5000 102.0000 Du        
  36961 ****       137.5000 127.5000 102.2500 Du        
  36962 ****       137.5000 127.5000 102.5000 Du        
  36963 ****       137.5000 127.5000 102.7500 Du        
  36964 ****       137.5000 127.5000 103.0000 Du        
  36965 ****       137.5000 127.5000 103.2500 Du        
  36966 ****       137.5000 127.5000 103.5000 Du        
  36967 ****       137.5000 127.5000 103.7500 Du        
  36968 ****       137.5000 127.5000 104.0000 Du        
  36969 ****       137.5000 127.5000 104.2500 Du        
  36970 ****       137.5000 127.7500  95.7500 Du        
  36971 ****       137.5000 127.7500  96.0000 Du        
  36972 ****       137.5000 127.7500  96.7500 Du        
  36973 ****       137.5000 127.7500 101.7500 Du        
  36974 ****       137.5000 127.7500 102.0000 Du        
  36975 ****       137.5000 127.7500 102.2500 Du        
  36976 ****       137.5000 127.7500 102.5000 Du        
  36977 ****       137.5000 127.7500 102.7500 Du        
  36978 ****       137.5000 127.7500 103.0000 Du        
  36979 ****       137.5000 127.7500 148.7500 Du        
  36980 ****       137.5000 128.0000 148.7500 Du        
  36981 ****       137.5000 128.0000 149.0000 Du        
  36982 ****       137.5000 128.2500 148.7500 Du        
  36983 ****       137.5000 128.2500 149.0000 Du        
  36984 ****       137.5000 128.2500 149.2500 Du        
  36985 ****       137.5000 128.2500 149.5000 Du        
  36986 ****       137.5000 128.5000 149.0000 Du        
  36987 ****       137.5000 128.5000 149.2500 Du        
  36988 ****       137.5000 128.5000 149.5000 Du        
  36989 ****       137.5000 128.7500 149.0000 Du        
  36990 ****       137.5000 128.7500 149.2500 Du        
  36991 ****       137.5000 128.7500 149.5000 Du        
  36992 ****       137.5000 128.7500 149.7500 Du        
  36993 ****       137.5000 128.7500 150.0000 Du        
  36994 ****       137.5000 129.0000 149.2500 Du        
  36995 ****       137.5000 129.0000 149.5000 Du        
  36996 ****       137.5000 129.0000 149.7500 Du        
  36997 ****       137.5000 129.0000 150.0000 Du        
  36998 ****       137.5000 129.7500 138.0000 Du        
  36999 ****       137.5000 129.7500 138.2500 Du        
  37000 ****       137.5000 130.0000 138.0000 Du        
  37001 ****       137.5000 130.0000 138.2500 Du        
  37002 ****       137.5000 130.0000 138.5000 Du        
  37003 ****       137.5000 130.2500 138.2500 Du        
  37004 ****       137.5000 130.2500 138.5000 Du        
  37005 ****       137.5000 134.5000 151.2500 Du        
  37006 ****       137.5000 134.5000 151.5000 Du        
  37007 ****       137.5000 134.5000 151.7500 Du        
  37008 ****       137.5000 134.5000 152.0000 Du        
  37009 ****       137.5000 134.5000 152.5000 Du        
  37010 ****       137.5000 134.5000 152.7500 Du        
  37011 ****       137.5000 134.5000 153.0000 Du        
  37012 ****       137.5000 134.5000 153.2500 Du        
  37013 ****       137.5000 134.5000 153.5000 Du        
  37014 ****       137.5000 134.7500 151.0000 Du        
  37015 ****       137.5000 134.7500 151.2500 Du        
  37016 ****       137.5000 134.7500 151.5000 Du        
  37017 ****       137.5000 134.7500 151.7500 Du        
  37018 ****       137.5000 134.7500 152.0000 Du        
  37019 ****       137.5000 134.7500 152.2500 Du        
  37020 ****       137.5000 134.7500 152.5000 Du        
  37021 ****       137.5000 134.7500 152.7500 Du        
  37022 ****       137.5000 134.7500 153.0000 Du        
  37023 ****       137.5000 134.7500 153.2500 Du        
  37024 ****       137.5000 135.0000 150.7500 Du        
  37025 ****       137.5000 135.0000 151.0000 Du        
  37026 ****       137.5000 135.0000 151.2500 Du        
  37027 ****       137.5000 135.0000 151.5000 Du        
  37028 ****       137.5000 135.0000 151.7500 Du        
  37029 ****       137.5000 135.0000 152.0000 Du        
  37030 ****       137.5000 135.0000 152.2500 Du        
  37031 ****       137.5000 135.0000 152.5000 Du        
  37032 ****       137.5000 135.0000 152.7500 Du        
  37033 ****       137.5000 135.2500 150.7500 Du        
  37034 ****       137.5000 135.2500 151.0000 Du        
  37035 ****       137.5000 135.2500 151.2500 Du        
  37036 ****       137.5000 135.2500 151.5000 Du        
  37037 ****       137.5000 135.2500 151.7500 Du        
  37038 ****       137.5000 135.2500 152.0000 Du        
  37039 ****       137.5000 135.2500 152.2500 Du        
  37040 ****       137.5000 135.5000 150.5000 Du        
  37041 ****       137.5000 135.5000 150.7500 Du        
  37042 ****       137.5000 135.5000 151.0000 Du        
  37043 ****       137.5000 135.5000 151.2500 Du        
  37044 ****       137.5000 135.5000 151.5000 Du        
  37045 ****       137.5000 135.5000 151.7500 Du        
  37046 ****       137.5000 135.7500 150.5000 Du        
  37047 ****       137.5000 135.7500 150.7500 Du        
  37048 ****       137.5000 135.7500 151.0000 Du        
  37049 ****       137.5000 135.7500 151.2500 Du        
  37050 ****       137.5000 135.7500 151.5000 Du        
  37051 ****       137.5000 136.0000 150.2500 Du        
  37052 ****       137.5000 136.0000 150.5000 Du        
  37053 ****       137.5000 136.0000 150.7500 Du        
  37054 ****       137.5000 136.0000 151.0000 Du        
  37055 ****       137.5000 136.0000 151.2500 Du        
  37056 ****       137.5000 136.2500 150.0000 Du        
  37057 ****       137.5000 136.2500 150.2500 Du        
  37058 ****       137.5000 136.2500 150.5000 Du        
  37059 ****       137.5000 136.2500 150.7500 Du        
  37060 ****       137.5000 136.5000 149.5000 Du        
  37061 ****       137.5000 136.5000 149.7500 Du        
  37062 ****       137.5000 136.5000 150.0000 Du        
  37063 ****       137.5000 136.5000 150.2500 Du        
  37064 ****       137.5000 136.5000 150.5000 Du        
  37065 ****       137.5000 136.7500 149.5000 Du        
  37066 ****       137.5000 136.7500 149.7500 Du        
  37067 ****       137.5000 136.7500 150.0000 Du        
  37068 ****       137.5000 138.0000  91.5000 Du        
  37069 ****       137.5000 138.2500  91.5000 Du        
  37070 ****       137.5000 138.7500  91.7500 Du        
  37071 ****       137.5000 139.0000  91.7500 Du        
  37072 ****       137.5000 139.2500  92.0000 Du        
  37073 ****       137.5000 139.7500  92.0000 Du        
  37074 ****       137.5000 140.0000  92.0000 Du        
  37075 ****       137.5000 140.2500  92.0000 Du        
  37076 ****       137.5000 141.7500  92.7500 Du        
  37077 ****       137.5000 141.7500  93.0000 Du        
  37078 ****       137.5000 141.7500  93.2500 Du        
  37079 ****       137.5000 142.0000  92.5000 Du        
  37080 ****       137.5000 142.0000  92.7500 Du        
  37081 ****       137.5000 142.0000  93.0000 Du        
  37082 ****       137.5000 142.0000  93.2500 Du        
  37083 ****       137.5000 142.0000  93.5000 Du        
  37084 ****       137.5000 142.0000  93.7500 Du        
  37085 ****       137.5000 142.2500  92.5000 Du        
  37086 ****       137.5000 142.2500  92.7500 Du        
  37087 ****       137.5000 142.2500  93.0000 Du        
  37088 ****       137.5000 142.2500  93.2500 Du        
  37089 ****       137.5000 142.2500  93.5000 Du        
  37090 ****       137.5000 142.5000  92.5000 Du        
  37091 ****       137.5000 142.5000  92.7500 Du        
  37092 ****       137.5000 142.5000  93.0000 Du        
  37093 ****       137.5000 142.5000  93.2500 Du        
  37094 ****       137.5000 142.5000  93.5000 Du        
  37095 ****       137.5000 142.7500  92.5000 Du        
  37096 ****       137.5000 142.7500  92.7500 Du        
  37097 ****       137.5000 142.7500  93.0000 Du        
  37098 ****       137.5000 142.7500  93.2500 Du        
  37099 ****       137.5000 143.0000  92.5000 Du        
  37100 ****       137.5000 143.0000  92.7500 Du        
  37101 ****       137.5000 143.0000  93.0000 Du        
  37102 ****       137.5000 143.2500  92.5000 Du        
  37103 ****       137.5000 143.2500  92.7500 Du        
  37104 ****       137.5000 143.2500 130.5000 Du        
  37105 ****       137.5000 143.2500 130.7500 Du        
  37106 ****       137.5000 143.5000  92.5000 Du        
  37107 ****       137.5000 143.5000  92.7500 Du        
  37108 ****       137.5000 143.5000 130.2500 Du        
  37109 ****       137.5000 143.5000 130.5000 Du        
  37110 ****       137.5000 143.5000 130.7500 Du        
  37111 ****       137.5000 143.5000 131.0000 Du        
  37112 ****       137.5000 143.7500  92.5000 Du        
  37113 ****       137.5000 143.7500 130.0000 Du        
  37114 ****       137.5000 143.7500 130.2500 Du        
  37115 ****       137.5000 143.7500 130.5000 Du        
  37116 ****       137.5000 143.7500 130.7500 Du        
  37117 ****       137.5000 143.7500 131.0000 Du        
  37118 ****       137.5000 143.7500 131.2500 Du        
  37119 ****       137.5000 143.7500 131.5000 Du        
  37120 ****       137.5000 144.0000  92.5000 Du        
  37121 ****       137.5000 144.0000 129.7500 Du        
  37122 ****       137.5000 144.0000 130.0000 Du        
  37123 ****       137.5000 144.0000 130.2500 Du        
  37124 ****       137.5000 144.0000 130.5000 Du        
  37125 ****       137.5000 144.0000 130.7500 Du        
  37126 ****       137.5000 144.0000 131.0000 Du        
  37127 ****       137.5000 144.0000 131.2500 Du        
  37128 ****       137.5000 144.0000 131.5000 Du        
  37129 ****       137.5000 144.0000 131.7500 Du        
  37130 ****       137.5000 144.2500  92.5000 Du        
  37131 ****       137.5000 144.2500 129.5000 Du        
  37132 ****       137.5000 144.2500 129.7500 Du        
  37133 ****       137.5000 144.2500 130.0000 Du        
  37134 ****       137.5000 144.2500 130.2500 Du        
  37135 ****       137.5000 144.2500 130.5000 Du        
  37136 ****       137.5000 144.2500 130.7500 Du        
  37137 ****       137.5000 144.2500 131.0000 Du        
  37138 ****       137.5000 144.2500 131.2500 Du        
  37139 ****       137.5000 144.2500 131.5000 Du        
  37140 ****       137.5000 144.2500 131.7500 Du        
  37141 ****       137.5000 144.5000  92.5000 Du        
  37142 ****       137.5000 144.5000 129.7500 Du        
  37143 ****       137.5000 144.5000 130.0000 Du        
  37144 ****       137.5000 144.5000 130.2500 Du        
  37145 ****       137.5000 144.5000 130.5000 Du        
  37146 ****       137.5000 144.5000 130.7500 Du        
  37147 ****       137.5000 144.5000 131.0000 Du        
  37148 ****       137.5000 144.5000 131.2500 Du        
  37149 ****       137.5000 144.7500  92.0000 Du        
  37150 ****       137.5000 144.7500 129.7500 Du        
  37151 ****       137.5000 144.7500 130.0000 Du        
  37152 ****       137.5000 144.7500 130.2500 Du        
  37153 ****       137.5000 144.7500 130.5000 Du        
  37154 ****       137.5000 144.7500 130.7500 Du        
  37155 ****       137.5000 144.7500 131.0000 Du        
  37156 ****       137.5000 152.0000 106.7500 Du        
  37157 ****       137.5000 152.0000 107.0000 Du        
  37158 ****       137.5000 152.0000 107.2500 Du        
  37159 ****       137.5000 152.0000 107.5000 Du        
  37160 ****       137.5000 152.2500 106.5000 Du        
  37161 ****       137.5000 152.2500 106.7500 Du        
  37162 ****       137.5000 152.2500 107.0000 Du        
  37163 ****       137.5000 152.2500 107.2500 Du        
  37164 ****       137.5000 152.2500 107.5000 Du        
  37165 ****       137.5000 152.2500 107.7500 Du        
  37166 ****       137.5000 152.2500 108.0000 Du        
  37167 ****       137.5000 152.5000 106.2500 Du        
  37168 ****       137.5000 152.5000 106.5000 Du        
  37169 ****       137.5000 152.5000 106.7500 Du        
  37170 ****       137.5000 152.5000 107.0000 Du        
  37171 ****       137.5000 152.5000 107.2500 Du        
  37172 ****       137.5000 152.5000 107.5000 Du        
  37173 ****       137.5000 152.5000 107.7500 Du        
  37174 ****       137.5000 152.5000 108.0000 Du        
  37175 ****       137.5000 152.5000 108.2500 Du        
  37176 ****       137.5000 152.7500 106.2500 Du        
  37177 ****       137.5000 152.7500 106.5000 Du        
  37178 ****       137.5000 152.7500 106.7500 Du        
  37179 ****       137.5000 152.7500 107.0000 Du        
  37180 ****       137.5000 152.7500 107.2500 Du        
  37181 ****       137.5000 152.7500 107.5000 Du        
  37182 ****       137.5000 152.7500 107.7500 Du        
  37183 ****       137.5000 152.7500 108.0000 Du        
  37184 ****       137.5000 152.7500 108.2500 Du        
  37185 ****       137.5000 152.7500 108.5000 Du        
  37186 ****       137.5000 153.0000 106.0000 Du        
  37187 ****       137.5000 153.0000 106.2500 Du        
  37188 ****       137.5000 153.0000 106.5000 Du        
  37189 ****       137.5000 153.0000 106.7500 Du        
  37190 ****       137.5000 153.0000 107.0000 Du        
  37191 ****       137.5000 153.0000 107.2500 Du        
  37192 ****       137.5000 153.0000 107.5000 Du        
  37193 ****       137.5000 153.0000 107.7500 Du        
  37194 ****       137.5000 153.0000 108.0000 Du        
  37195 ****       137.5000 153.0000 108.2500 Du        
  37196 ****       137.5000 153.0000 108.5000 Du        
  37197 ****       137.5000 153.0000 108.7500 Du        
  37198 ****       137.5000 153.2500 106.0000 Du        
  37199 ****       137.5000 153.2500 106.2500 Du        
  37200 ****       137.5000 153.2500 106.5000 Du        
  37201 ****       137.5000 153.2500 106.7500 Du        
  37202 ****       137.5000 153.2500 107.0000 Du        
  37203 ****       137.5000 153.2500 107.2500 Du        
  37204 ****       137.5000 153.2500 107.5000 Du        
  37205 ****       137.5000 153.2500 107.7500 Du        
  37206 ****       137.5000 153.2500 108.0000 Du        
  37207 ****       137.5000 153.2500 108.2500 Du        
  37208 ****       137.5000 153.2500 108.5000 Du        
  37209 ****       137.5000 153.2500 108.7500 Du        
  37210 ****       137.5000 153.5000 105.7500 Du        
  37211 ****       137.5000 153.5000 106.0000 Du        
  37212 ****       137.5000 153.5000 106.2500 Du        
  37213 ****       137.5000 153.5000 106.5000 Du        
  37214 ****       137.5000 153.5000 106.7500 Du        
  37215 ****       137.5000 153.5000 107.0000 Du        
  37216 ****       137.5000 153.5000 107.2500 Du        
  37217 ****       137.5000 153.5000 107.5000 Du        
  37218 ****       137.5000 153.5000 107.7500 Du        
  37219 ****       137.5000 153.5000 108.0000 Du        
  37220 ****       137.5000 153.5000 108.2500 Du        
  37221 ****       137.5000 153.7500 105.7500 Du        
  37222 ****       137.5000 153.7500 106.0000 Du        
  37223 ****       137.5000 153.7500 106.2500 Du        
  37224 ****       137.5000 153.7500 106.5000 Du        
  37225 ****       137.5000 153.7500 106.7500 Du        
  37226 ****       137.5000 153.7500 107.0000 Du        
  37227 ****       137.5000 153.7500 107.2500 Du        
  37228 ****       137.5000 153.7500 107.5000 Du        
  37229 ****       137.5000 153.7500 107.7500 Du        
  37230 ****       137.5000 153.7500 108.0000 Du        
  37231 ****       137.5000 153.7500 108.2500 Du        
  37232 ****       137.5000 154.0000 105.5000 Du        
  37233 ****       137.5000 154.0000 105.7500 Du        
  37234 ****       137.5000 154.0000 106.0000 Du        
  37235 ****       137.5000 154.0000 106.2500 Du        
  37236 ****       137.5000 154.0000 106.5000 Du        
  37237 ****       137.5000 154.0000 106.7500 Du        
  37238 ****       137.5000 154.0000 107.0000 Du        
  37239 ****       137.5000 154.0000 107.2500 Du        
  37240 ****       137.5000 154.2500 105.2500 Du        
  37241 ****       137.5000 154.2500 105.5000 Du        
  37242 ****       137.5000 154.2500 105.7500 Du        
  37243 ****       137.5000 154.2500 106.0000 Du        
  37244 ****       137.5000 154.2500 106.2500 Du        
  37245 ****       137.5000 154.2500 106.5000 Du        
  37246 ****       137.5000 154.2500 106.7500 Du        
  37247 ****       137.5000 154.2500 107.0000 Du        
  37248 ****       137.5000 154.2500 107.2500 Du        
  37249 ****       137.5000 154.5000 105.5000 Du        
  37250 ****       137.5000 154.5000 105.7500 Du        
  37251 ****       137.5000 154.5000 106.0000 Du        
  37252 ****       137.5000 154.5000 106.2500 Du        
  37253 ****       137.5000 154.7500 105.2500 Du        
  37254 ****       137.5000 154.7500 105.5000 Du        
  37255 ****       137.5000 154.7500 105.7500 Du        
  37256 ****       137.5000 154.7500 106.0000 Du        
  37257 ****       137.5000 155.0000 105.7500 Du        
  37258 ****       137.5000 156.0000 144.5000 Du        
  37259 ****       137.5000 156.0000 144.7500 Du        
  37260 ****       137.5000 156.2500 144.5000 Du        
  37261 ****       137.5000 156.2500 144.7500 Du        
  37262 ****       137.5000 156.2500 145.0000 Du        
  37263 ****       137.5000 156.5000 144.5000 Du        
  37264 ****       137.5000 156.5000 144.7500 Du        
  37265 ****       137.5000 156.5000 145.0000 Du        
  37266 ****       137.5000 156.7500 144.5000 Du        
  37267 ****       137.5000 156.7500 144.7500 Du        
  37268 ****       137.5000 156.7500 145.0000 Du        
  37269 ****       137.5000 157.0000 144.5000 Du        
  37270 ****       137.5000 157.0000 144.7500 Du        
  37271 ****       137.5000 157.0000 145.0000 Du        
  37272 ****       137.5000 157.2500 144.5000 Du        
  37273 ****       137.5000 157.2500 144.7500 Du        
  37274 ****       137.5000 157.2500 145.0000 Du        
  37275 ****       137.5000 157.5000 144.5000 Du        
  37276 ****       137.5000 157.5000 144.7500 Du        
  37277 ****       137.5000 159.7500 155.0000 Du        
  37278 ****       137.5000 159.7500 155.2500 Du        
  37279 ****       137.5000 159.7500 155.5000 Du        
  37280 ****       137.5000 159.7500 155.7500 Du        
  37281 ****       137.5000 160.0000 153.0000 Du        
  37282 ****       137.5000 160.0000 153.2500 Du        
  37283 ****       137.5000 160.0000 153.5000 Du        
  37284 ****       137.5000 160.0000 153.7500 Du        
  37285 ****       137.5000 160.0000 154.0000 Du        
  37286 ****       137.5000 160.0000 154.2500 Du        
  37287 ****       137.5000 160.0000 154.5000 Du        
  37288 ****       137.5000 160.0000 154.7500 Du        
  37289 ****       137.5000 160.0000 155.0000 Du        
  37290 ****       137.5000 160.0000 155.2500 Du        
  37291 ****       137.5000 160.0000 155.5000 Du        
  37292 ****       137.5000 160.0000 155.7500 Du        
  37293 ****       137.5000 160.0000 156.0000 Du        
  37294 ****       137.5000 160.2500 152.7500 Du        
  37295 ****       137.5000 160.2500 153.0000 Du        
  37296 ****       137.5000 160.2500 153.2500 Du        
  37297 ****       137.5000 160.2500 153.5000 Du        
  37298 ****       137.5000 160.2500 153.7500 Du        
  37299 ****       137.5000 160.2500 154.0000 Du        
  37300 ****       137.5000 160.2500 154.2500 Du        
  37301 ****       137.5000 160.2500 154.5000 Du        
  37302 ****       137.5000 160.2500 154.7500 Du        
  37303 ****       137.5000 160.2500 155.0000 Du        
  37304 ****       137.5000 160.2500 155.2500 Du        
  37305 ****       137.5000 160.2500 155.5000 Du        
  37306 ****       137.5000 160.2500 155.7500 Du        
  37307 ****       137.5000 160.2500 156.0000 Du        
  37308 ****       137.5000 160.2500 156.2500 Du        
  37309 ****       137.5000 160.5000 152.7500 Du        
  37310 ****       137.5000 160.5000 153.0000 Du        
  37311 ****       137.5000 160.5000 153.2500 Du        
  37312 ****       137.5000 160.5000 153.5000 Du        
  37313 ****       137.5000 160.5000 153.7500 Du        
  37314 ****       137.5000 160.5000 154.0000 Du        
  37315 ****       137.5000 160.5000 154.2500 Du        
  37316 ****       137.5000 160.5000 154.5000 Du        
  37317 ****       137.5000 160.5000 154.7500 Du        
  37318 ****       137.5000 160.5000 155.0000 Du        
  37319 ****       137.5000 160.5000 155.2500 Du        
  37320 ****       137.5000 160.5000 155.5000 Du        
  37321 ****       137.5000 160.5000 155.7500 Du        
  37322 ****       137.5000 160.5000 156.0000 Du        
  37323 ****       137.5000 160.5000 156.2500 Du        
  37324 ****       137.5000 160.7500 153.0000 Du        
  37325 ****       137.5000 160.7500 153.2500 Du        
  37326 ****       137.5000 160.7500 153.5000 Du        
  37327 ****       137.5000 160.7500 153.7500 Du        
  37328 ****       137.5000 160.7500 154.0000 Du        
  37329 ****       137.5000 160.7500 154.2500 Du        
  37330 ****       137.5000 160.7500 154.5000 Du        
  37331 ****       137.5000 160.7500 154.7500 Du        
  37332 ****       137.5000 160.7500 155.0000 Du        
  37333 ****       137.5000 160.7500 155.2500 Du        
  37334 ****       137.5000 160.7500 155.5000 Du        
  37335 ****       137.5000 160.7500 155.7500 Du        
  37336 ****       137.5000 160.7500 156.0000 Du        
  37337 ****       137.5000 160.7500 156.2500 Du        
  37338 ****       137.5000 161.0000 153.5000 Du        
  37339 ****       137.5000 161.0000 153.7500 Du        
  37340 ****       137.5000 161.0000 154.0000 Du        
  37341 ****       137.5000 161.0000 154.2500 Du        
  37342 ****       137.5000 161.0000 154.5000 Du        
  37343 ****       137.5000 161.0000 154.7500 Du        
  37344 ****       137.5000 161.0000 155.0000 Du        
  37345 ****       137.5000 161.0000 155.2500 Du        
  37346 ****       137.5000 161.0000 155.5000 Du        
  37347 ****       137.5000 161.0000 155.7500 Du        
  37348 ****       137.5000 161.0000 156.0000 Du        
  37349 ****       137.5000 161.2500 154.2500 Du        
  37350 ****       137.5000 161.2500 154.5000 Du        
  37351 ****       137.5000 161.2500 154.7500 Du        
  37352 ****       137.5000 161.2500 155.0000 Du        
  37353 ****       137.5000 161.2500 155.2500 Du        
  37354 ****       137.5000 161.2500 155.5000 Du        
  37355 ****       137.7500 125.2500 102.5000 Du        
  37356 ****       137.7500 125.2500 102.7500 Du        
  37357 ****       137.7500 125.2500 103.0000 Du        
  37358 ****       137.7500 125.2500 103.2500 Du        
  37359 ****       137.7500 125.5000 102.2500 Du        
  37360 ****       137.7500 125.5000 102.5000 Du        
  37361 ****       137.7500 125.5000 102.7500 Du        
  37362 ****       137.7500 125.5000 103.0000 Du        
  37363 ****       137.7500 125.5000 103.2500 Du        
  37364 ****       137.7500 125.5000 103.5000 Du        
  37365 ****       137.7500 125.5000 103.7500 Du        
  37366 ****       137.7500 125.7500 101.5000 Du        
  37367 ****       137.7500 125.7500 101.7500 Du        
  37368 ****       137.7500 125.7500 102.0000 Du        
  37369 ****       137.7500 125.7500 102.2500 Du        
  37370 ****       137.7500 125.7500 102.5000 Du        
  37371 ****       137.7500 125.7500 102.7500 Du        
  37372 ****       137.7500 125.7500 103.0000 Du        
  37373 ****       137.7500 125.7500 103.2500 Du        
  37374 ****       137.7500 125.7500 103.5000 Du        
  37375 ****       137.7500 125.7500 103.7500 Du        
  37376 ****       137.7500 125.7500 104.0000 Du        
  37377 ****       137.7500 126.0000 101.2500 Du        
  37378 ****       137.7500 126.0000 101.5000 Du        
  37379 ****       137.7500 126.0000 101.7500 Du        
  37380 ****       137.7500 126.0000 102.0000 Du        
  37381 ****       137.7500 126.0000 102.2500 Du        
  37382 ****       137.7500 126.0000 102.5000 Du        
  37383 ****       137.7500 126.0000 102.7500 Du        
  37384 ****       137.7500 126.0000 103.0000 Du        
  37385 ****       137.7500 126.0000 103.2500 Du        
  37386 ****       137.7500 126.0000 103.5000 Du        
  37387 ****       137.7500 126.0000 103.7500 Du        
  37388 ****       137.7500 126.0000 104.0000 Du        
  37389 ****       137.7500 126.0000 104.2500 Du        
  37390 ****       137.7500 126.2500 101.0000 Du        
  37391 ****       137.7500 126.2500 101.2500 Du        
  37392 ****       137.7500 126.2500 101.5000 Du        
  37393 ****       137.7500 126.2500 101.7500 Du        
  37394 ****       137.7500 126.2500 102.0000 Du        
  37395 ****       137.7500 126.2500 102.2500 Du        
  37396 ****       137.7500 126.2500 102.5000 Du        
  37397 ****       137.7500 126.2500 102.7500 Du        
  37398 ****       137.7500 126.2500 103.0000 Du        
  37399 ****       137.7500 126.2500 103.2500 Du        
  37400 ****       137.7500 126.2500 103.5000 Du        
  37401 ****       137.7500 126.2500 103.7500 Du        
  37402 ****       137.7500 126.2500 104.0000 Du        
  37403 ****       137.7500 126.2500 104.2500 Du        
  37404 ****       137.7500 126.5000 100.7500 Du        
  37405 ****       137.7500 126.5000 101.0000 Du        
  37406 ****       137.7500 126.5000 101.2500 Du        
  37407 ****       137.7500 126.5000 101.5000 Du        
  37408 ****       137.7500 126.5000 101.7500 Du        
  37409 ****       137.7500 126.5000 102.0000 Du        
  37410 ****       137.7500 126.5000 102.2500 Du        
  37411 ****       137.7500 126.5000 102.5000 Du        
  37412 ****       137.7500 126.5000 102.7500 Du        
  37413 ****       137.7500 126.5000 103.0000 Du        
  37414 ****       137.7500 126.5000 103.2500 Du        
  37415 ****       137.7500 126.5000 103.5000 Du        
  37416 ****       137.7500 126.5000 103.7500 Du        
  37417 ****       137.7500 126.5000 104.0000 Du        
  37418 ****       137.7500 126.5000 104.2500 Du        
  37419 ****       137.7500 126.7500 100.7500 Du        
  37420 ****       137.7500 126.7500 101.0000 Du        
  37421 ****       137.7500 126.7500 101.2500 Du        
  37422 ****       137.7500 126.7500 101.5000 Du        
  37423 ****       137.7500 126.7500 101.7500 Du        
  37424 ****       137.7500 126.7500 102.0000 Du        
  37425 ****       137.7500 126.7500 102.2500 Du        
  37426 ****       137.7500 126.7500 102.5000 Du        
  37427 ****       137.7500 126.7500 102.7500 Du        
  37428 ****       137.7500 126.7500 103.0000 Du        
  37429 ****       137.7500 126.7500 103.2500 Du        
  37430 ****       137.7500 126.7500 103.5000 Du        
  37431 ****       137.7500 126.7500 103.7500 Du        
  37432 ****       137.7500 126.7500 104.0000 Du        
  37433 ****       137.7500 126.7500 104.2500 Du        
  37434 ****       137.7500 126.7500 104.5000 Du        
  37435 ****       137.7500 127.0000 100.7500 Du        
  37436 ****       137.7500 127.0000 101.0000 Du        
  37437 ****       137.7500 127.0000 101.2500 Du        
  37438 ****       137.7500 127.0000 101.5000 Du        
  37439 ****       137.7500 127.0000 101.7500 Du        
  37440 ****       137.7500 127.0000 102.0000 Du        
  37441 ****       137.7500 127.0000 102.2500 Du        
  37442 ****       137.7500 127.0000 102.5000 Du        
  37443 ****       137.7500 127.0000 102.7500 Du        
  37444 ****       137.7500 127.0000 103.0000 Du        
  37445 ****       137.7500 127.0000 103.2500 Du        
  37446 ****       137.7500 127.0000 103.5000 Du        
  37447 ****       137.7500 127.0000 103.7500 Du        
  37448 ****       137.7500 127.0000 104.0000 Du        
  37449 ****       137.7500 127.0000 104.2500 Du        
  37450 ****       137.7500 127.0000 104.5000 Du        
  37451 ****       137.7500 127.2500  97.0000 Du        
  37452 ****       137.7500 127.2500  97.2500 Du        
  37453 ****       137.7500 127.2500 101.2500 Du        
  37454 ****       137.7500 127.2500 101.5000 Du        
  37455 ****       137.7500 127.2500 101.7500 Du        
  37456 ****       137.7500 127.2500 102.0000 Du        
  37457 ****       137.7500 127.2500 102.2500 Du        
  37458 ****       137.7500 127.2500 102.5000 Du        
  37459 ****       137.7500 127.2500 102.7500 Du        
  37460 ****       137.7500 127.2500 103.0000 Du        
  37461 ****       137.7500 127.2500 103.2500 Du        
  37462 ****       137.7500 127.2500 103.5000 Du        
  37463 ****       137.7500 127.2500 103.7500 Du        
  37464 ****       137.7500 127.2500 104.0000 Du        
  37465 ****       137.7500 127.2500 104.2500 Du        
  37466 ****       137.7500 127.2500 104.5000 Du        
  37467 ****       137.7500 127.5000  95.7500 Du        
  37468 ****       137.7500 127.5000  96.0000 Du        
  37469 ****       137.7500 127.5000  96.7500 Du        
  37470 ****       137.7500 127.5000  97.0000 Du        
  37471 ****       137.7500 127.5000 101.5000 Du        
  37472 ****       137.7500 127.5000 101.7500 Du        
  37473 ****       137.7500 127.5000 102.0000 Du        
  37474 ****       137.7500 127.5000 102.2500 Du        
  37475 ****       137.7500 127.5000 102.5000 Du        
  37476 ****       137.7500 127.5000 102.7500 Du        
  37477 ****       137.7500 127.5000 103.0000 Du        
  37478 ****       137.7500 127.5000 103.2500 Du        
  37479 ****       137.7500 127.5000 103.5000 Du        
  37480 ****       137.7500 127.5000 103.7500 Du        
  37481 ****       137.7500 127.5000 104.0000 Du        
  37482 ****       137.7500 127.5000 104.2500 Du        
  37483 ****       137.7500 127.5000 104.5000 Du        
  37484 ****       137.7500 127.5000 148.7500 Du        
  37485 ****       137.7500 127.7500  95.7500 Du        
  37486 ****       137.7500 127.7500  96.0000 Du        
  37487 ****       137.7500 127.7500 102.0000 Du        
  37488 ****       137.7500 127.7500 102.2500 Du        
  37489 ****       137.7500 127.7500 102.5000 Du        
  37490 ****       137.7500 127.7500 102.7500 Du        
  37491 ****       137.7500 127.7500 103.0000 Du        
  37492 ****       137.7500 127.7500 103.2500 Du        
  37493 ****       137.7500 127.7500 103.5000 Du        
  37494 ****       137.7500 127.7500 148.5000 Du        
  37495 ****       137.7500 127.7500 148.7500 Du        
  37496 ****       137.7500 127.7500 149.0000 Du        
  37497 ****       137.7500 128.0000 148.5000 Du        
  37498 ****       137.7500 128.0000 148.7500 Du        
  37499 ****       137.7500 128.0000 149.0000 Du        
  37500 ****       137.7500 128.0000 149.2500 Du        
  37501 ****       137.7500 128.2500 148.5000 Du        
  37502 ****       137.7500 128.2500 148.7500 Du        
  37503 ****       137.7500 128.2500 149.0000 Du        
  37504 ****       137.7500 128.2500 149.2500 Du        
  37505 ****       137.7500 128.2500 149.5000 Du        
  37506 ****       137.7500 128.5000 148.7500 Du        
  37507 ****       137.7500 128.5000 149.0000 Du        
  37508 ****       137.7500 128.5000 149.2500 Du        
  37509 ****       137.7500 128.5000 149.5000 Du        
  37510 ****       137.7500 128.5000 149.7500 Du        
  37511 ****       137.7500 128.7500 149.0000 Du        
  37512 ****       137.7500 128.7500 149.2500 Du        
  37513 ****       137.7500 128.7500 149.5000 Du        
  37514 ****       137.7500 128.7500 149.7500 Du        
  37515 ****       137.7500 129.0000 149.0000 Du        
  37516 ****       137.7500 129.0000 149.2500 Du        
  37517 ****       137.7500 129.0000 149.5000 Du        
  37518 ****       137.7500 129.0000 149.7500 Du        
  37519 ****       137.7500 129.5000 138.0000 Du        
  37520 ****       137.7500 129.5000 138.2500 Du        
  37521 ****       137.7500 129.5000 138.5000 Du        
  37522 ****       137.7500 129.7500 138.0000 Du        
  37523 ****       137.7500 129.7500 138.2500 Du        
  37524 ****       137.7500 129.7500 138.5000 Du        
  37525 ****       137.7500 129.7500 138.7500 Du        
  37526 ****       137.7500 129.7500 139.0000 Du        
  37527 ****       137.7500 130.0000 138.0000 Du        
  37528 ****       137.7500 130.0000 138.2500 Du        
  37529 ****       137.7500 130.0000 138.5000 Du        
  37530 ****       137.7500 130.0000 138.7500 Du        
  37531 ****       137.7500 130.0000 139.0000 Du        
  37532 ****       137.7500 130.2500 138.0000 Du        
  37533 ****       137.7500 130.2500 138.2500 Du        
  37534 ****       137.7500 130.2500 138.5000 Du        
  37535 ****       137.7500 130.2500 138.7500 Du        
  37536 ****       137.7500 130.2500 139.0000 Du        
  37537 ****       137.7500 130.2500 139.2500 Du        
  37538 ****       137.7500 130.5000 138.5000 Du        
  37539 ****       137.7500 130.5000 138.7500 Du        
  37540 ****       137.7500 130.5000 139.0000 Du        
  37541 ****       137.7500 130.5000 139.2500 Du        
  37542 ****       137.7500 130.7500 138.7500 Du        
  37543 ****       137.7500 130.7500 139.0000 Du        
  37544 ****       137.7500 130.7500 139.2500 Du        
  37545 ****       137.7500 131.0000 139.0000 Du        
  37546 ****       137.7500 131.0000 139.2500 Du        
  37547 ****       137.7500 131.0000 139.5000 Du        
  37548 ****       137.7500 131.2500 139.2500 Du        
  37549 ****       137.7500 134.7500 151.0000 Du        
  37550 ****       137.7500 134.7500 151.2500 Du        
  37551 ****       137.7500 134.7500 151.5000 Du        
  37552 ****       137.7500 134.7500 151.7500 Du        
  37553 ****       137.7500 134.7500 152.0000 Du        
  37554 ****       137.7500 135.0000 150.7500 Du        
  37555 ****       137.7500 135.0000 151.0000 Du        
  37556 ****       137.7500 135.0000 151.2500 Du        
  37557 ****       137.7500 135.0000 151.5000 Du        
  37558 ****       137.7500 135.0000 151.7500 Du        
  37559 ****       137.7500 135.0000 152.0000 Du        
  37560 ****       137.7500 135.2500 150.7500 Du        
  37561 ****       137.7500 135.2500 151.0000 Du        
  37562 ****       137.7500 135.2500 151.2500 Du        
  37563 ****       137.7500 135.2500 151.5000 Du        
  37564 ****       137.7500 135.2500 151.7500 Du        
  37565 ****       137.7500 135.5000 150.5000 Du        
  37566 ****       137.7500 135.5000 150.7500 Du        
  37567 ****       137.7500 135.5000 151.0000 Du        
  37568 ****       137.7500 135.5000 151.2500 Du        
  37569 ****       137.7500 135.5000 151.5000 Du        
  37570 ****       137.7500 135.7500 150.5000 Du        
  37571 ****       137.7500 135.7500 150.7500 Du        
  37572 ****       137.7500 135.7500 151.0000 Du        
  37573 ****       137.7500 135.7500 151.2500 Du        
  37574 ****       137.7500 136.0000 150.0000 Du        
  37575 ****       137.7500 136.0000 150.2500 Du        
  37576 ****       137.7500 136.0000 150.5000 Du        
  37577 ****       137.7500 136.0000 150.7500 Du        
  37578 ****       137.7500 136.0000 151.0000 Du        
  37579 ****       137.7500 136.2500 149.7500 Du        
  37580 ****       137.7500 136.2500 150.0000 Du        
  37581 ****       137.7500 136.2500 150.2500 Du        
  37582 ****       137.7500 136.2500 150.5000 Du        
  37583 ****       137.7500 136.2500 150.7500 Du        
  37584 ****       137.7500 136.5000 149.5000 Du        
  37585 ****       137.7500 136.5000 149.7500 Du        
  37586 ****       137.7500 136.5000 150.0000 Du        
  37587 ****       137.7500 136.5000 150.2500 Du        
  37588 ****       137.7500 136.5000 150.5000 Du        
  37589 ****       137.7500 136.7500 149.5000 Du        
  37590 ****       137.7500 136.7500 149.7500 Du        
  37591 ****       137.7500 136.7500 150.0000 Du        
  37592 ****       137.7500 136.7500 150.2500 Du        
  37593 ****       137.7500 137.0000 149.5000 Du        
  37594 ****       137.7500 137.0000 149.7500 Du        
  37595 ****       137.7500 137.0000 150.0000 Du        
  37596 ****       137.7500 137.2500  91.0000 Du        
  37597 ****       137.7500 142.0000  92.5000 Du        
  37598 ****       137.7500 142.0000  92.7500 Du        
  37599 ****       137.7500 142.0000  93.0000 Du        
  37600 ****       137.7500 142.2500  92.5000 Du        
  37601 ****       137.7500 142.2500  92.7500 Du        
  37602 ****       137.7500 142.2500  93.0000 Du        
  37603 ****       137.7500 142.5000  92.5000 Du        
  37604 ****       137.7500 142.5000  92.7500 Du        
  37605 ****       137.7500 142.5000  93.0000 Du        
  37606 ****       137.7500 142.5000  93.2500 Du        
  37607 ****       137.7500 142.7500  92.2500 Du        
  37608 ****       137.7500 142.7500  92.5000 Du        
  37609 ****       137.7500 142.7500  92.7500 Du        
  37610 ****       137.7500 142.7500  93.0000 Du        
  37611 ****       137.7500 143.0000  92.0000 Du        
  37612 ****       137.7500 143.0000  92.2500 Du        
  37613 ****       137.7500 143.0000  92.5000 Du        
  37614 ****       137.7500 143.0000  92.7500 Du        
  37615 ****       137.7500 143.2500  92.0000 Du        
  37616 ****       137.7500 143.2500  92.2500 Du        
  37617 ****       137.7500 143.2500  92.5000 Du        
  37618 ****       137.7500 143.2500  92.7500 Du        
  37619 ****       137.7500 143.2500 130.5000 Du        
  37620 ****       137.7500 143.2500 130.7500 Du        
  37621 ****       137.7500 143.2500 131.0000 Du        
  37622 ****       137.7500 143.5000 130.2500 Du        
  37623 ****       137.7500 143.5000 130.5000 Du        
  37624 ****       137.7500 143.5000 130.7500 Du        
  37625 ****       137.7500 143.5000 131.0000 Du        
  37626 ****       137.7500 143.5000 131.2500 Du        
  37627 ****       137.7500 143.7500  92.2500 Du        
  37628 ****       137.7500 143.7500  92.5000 Du        
  37629 ****       137.7500 143.7500 130.0000 Du        
  37630 ****       137.7500 143.7500 130.2500 Du        
  37631 ****       137.7500 143.7500 130.5000 Du        
  37632 ****       137.7500 143.7500 130.7500 Du        
  37633 ****       137.7500 143.7500 131.0000 Du        
  37634 ****       137.7500 143.7500 131.2500 Du        
  37635 ****       137.7500 143.7500 131.5000 Du        
  37636 ****       137.7500 144.0000 129.7500 Du        
  37637 ****       137.7500 144.0000 130.0000 Du        
  37638 ****       137.7500 144.0000 130.2500 Du        
  37639 ****       137.7500 144.0000 130.5000 Du        
  37640 ****       137.7500 144.0000 130.7500 Du        
  37641 ****       137.7500 144.0000 131.0000 Du        
  37642 ****       137.7500 144.0000 131.2500 Du        
  37643 ****       137.7500 144.0000 131.5000 Du        
  37644 ****       137.7500 144.0000 131.7500 Du        
  37645 ****       137.7500 144.2500 129.5000 Du        
  37646 ****       137.7500 144.2500 129.7500 Du        
  37647 ****       137.7500 144.2500 130.0000 Du        
  37648 ****       137.7500 144.2500 130.2500 Du        
  37649 ****       137.7500 144.2500 130.5000 Du        
  37650 ****       137.7500 144.2500 130.7500 Du        
  37651 ****       137.7500 144.2500 131.0000 Du        
  37652 ****       137.7500 144.2500 131.2500 Du        
  37653 ****       137.7500 144.2500 131.5000 Du        
  37654 ****       137.7500 144.2500 131.7500 Du        
  37655 ****       137.7500 144.2500 132.0000 Du        
  37656 ****       137.7500 144.5000  92.0000 Du        
  37657 ****       137.7500 144.5000  92.2500 Du        
  37658 ****       137.7500 144.5000 129.7500 Du        
  37659 ****       137.7500 144.5000 130.0000 Du        
  37660 ****       137.7500 144.5000 130.2500 Du        
  37661 ****       137.7500 144.5000 130.5000 Du        
  37662 ****       137.7500 144.5000 130.7500 Du        
  37663 ****       137.7500 144.5000 131.0000 Du        
  37664 ****       137.7500 144.5000 131.2500 Du        
  37665 ****       137.7500 144.5000 131.5000 Du        
  37666 ****       137.7500 144.5000 131.7500 Du        
  37667 ****       137.7500 144.7500  92.0000 Du        
  37668 ****       137.7500 144.7500  92.2500 Du        
  37669 ****       137.7500 144.7500 129.7500 Du        
  37670 ****       137.7500 144.7500 130.0000 Du        
  37671 ****       137.7500 144.7500 130.2500 Du        
  37672 ****       137.7500 144.7500 130.5000 Du        
  37673 ****       137.7500 144.7500 130.7500 Du        
  37674 ****       137.7500 144.7500 131.0000 Du        
  37675 ****       137.7500 145.0000  92.0000 Du        
  37676 ****       137.7500 151.7500 107.0000 Du        
  37677 ****       137.7500 151.7500 107.2500 Du        
  37678 ****       137.7500 152.0000 106.7500 Du        
  37679 ****       137.7500 152.0000 107.0000 Du        
  37680 ****       137.7500 152.0000 107.2500 Du        
  37681 ****       137.7500 152.0000 107.5000 Du        
  37682 ****       137.7500 152.0000 107.7500 Du        
  37683 ****       137.7500 152.2500 106.5000 Du        
  37684 ****       137.7500 152.2500 106.7500 Du        
  37685 ****       137.7500 152.2500 107.0000 Du        
  37686 ****       137.7500 152.2500 107.2500 Du        
  37687 ****       137.7500 152.2500 107.5000 Du        
  37688 ****       137.7500 152.2500 107.7500 Du        
  37689 ****       137.7500 152.2500 108.0000 Du        
  37690 ****       137.7500 152.2500 108.2500 Du        
  37691 ****       137.7500 152.5000 106.2500 Du        
  37692 ****       137.7500 152.5000 106.5000 Du        
  37693 ****       137.7500 152.5000 106.7500 Du        
  37694 ****       137.7500 152.5000 107.0000 Du        
  37695 ****       137.7500 152.5000 107.2500 Du        
  37696 ****       137.7500 152.5000 107.5000 Du        
  37697 ****       137.7500 152.5000 107.7500 Du        
  37698 ****       137.7500 152.5000 108.0000 Du        
  37699 ****       137.7500 152.5000 108.2500 Du        
  37700 ****       137.7500 152.7500 106.2500 Du        
  37701 ****       137.7500 152.7500 106.5000 Du        
  37702 ****       137.7500 152.7500 106.7500 Du        
  37703 ****       137.7500 152.7500 107.0000 Du        
  37704 ****       137.7500 152.7500 107.2500 Du        
  37705 ****       137.7500 152.7500 107.5000 Du        
  37706 ****       137.7500 152.7500 107.7500 Du        
  37707 ****       137.7500 152.7500 108.0000 Du        
  37708 ****       137.7500 152.7500 108.2500 Du        
  37709 ****       137.7500 152.7500 108.5000 Du        
  37710 ****       137.7500 152.7500 108.7500 Du        
  37711 ****       137.7500 153.0000 106.0000 Du        
  37712 ****       137.7500 153.0000 106.2500 Du        
  37713 ****       137.7500 153.0000 106.5000 Du        
  37714 ****       137.7500 153.0000 106.7500 Du        
  37715 ****       137.7500 153.0000 107.0000 Du        
  37716 ****       137.7500 153.0000 107.2500 Du        
  37717 ****       137.7500 153.0000 107.5000 Du        
  37718 ****       137.7500 153.0000 107.7500 Du        
  37719 ****       137.7500 153.0000 108.0000 Du        
  37720 ****       137.7500 153.0000 108.2500 Du        
  37721 ****       137.7500 153.0000 108.5000 Du        
  37722 ****       137.7500 153.0000 108.7500 Du        
  37723 ****       137.7500 153.0000 109.0000 Du        
  37724 ****       137.7500 153.2500 106.0000 Du        
  37725 ****       137.7500 153.2500 106.2500 Du        
  37726 ****       137.7500 153.2500 106.5000 Du        
  37727 ****       137.7500 153.2500 106.7500 Du        
  37728 ****       137.7500 153.2500 107.0000 Du        
  37729 ****       137.7500 153.2500 107.2500 Du        
  37730 ****       137.7500 153.2500 107.5000 Du        
  37731 ****       137.7500 153.2500 107.7500 Du        
  37732 ****       137.7500 153.2500 108.0000 Du        
  37733 ****       137.7500 153.2500 108.2500 Du        
  37734 ****       137.7500 153.2500 108.5000 Du        
  37735 ****       137.7500 153.2500 108.7500 Du        
  37736 ****       137.7500 153.2500 109.0000 Du        
  37737 ****       137.7500 153.5000 105.7500 Du        
  37738 ****       137.7500 153.5000 106.0000 Du        
  37739 ****       137.7500 153.5000 106.2500 Du        
  37740 ****       137.7500 153.5000 106.5000 Du        
  37741 ****       137.7500 153.5000 106.7500 Du        
  37742 ****       137.7500 153.5000 107.0000 Du        
  37743 ****       137.7500 153.5000 107.2500 Du        
  37744 ****       137.7500 153.5000 107.5000 Du        
  37745 ****       137.7500 153.5000 107.7500 Du        
  37746 ****       137.7500 153.5000 108.0000 Du        
  37747 ****       137.7500 153.5000 108.2500 Du        
  37748 ****       137.7500 153.7500  98.0000 Du        
  37749 ****       137.7500 153.7500 105.7500 Du        
  37750 ****       137.7500 153.7500 106.0000 Du        
  37751 ****       137.7500 153.7500 106.2500 Du        
  37752 ****       137.7500 153.7500 106.5000 Du        
  37753 ****       137.7500 153.7500 106.7500 Du        
  37754 ****       137.7500 153.7500 107.0000 Du        
  37755 ****       137.7500 153.7500 107.2500 Du        
  37756 ****       137.7500 153.7500 107.5000 Du        
  37757 ****       137.7500 153.7500 107.7500 Du        
  37758 ****       137.7500 153.7500 108.0000 Du        
  37759 ****       137.7500 153.7500 108.2500 Du        
  37760 ****       137.7500 154.0000  97.5000 Du        
  37761 ****       137.7500 154.0000  97.7500 Du        
  37762 ****       137.7500 154.0000  98.0000 Du        
  37763 ****       137.7500 154.0000  98.2500 Du        
  37764 ****       137.7500 154.0000  98.5000 Du        
  37765 ****       137.7500 154.0000 105.5000 Du        
  37766 ****       137.7500 154.0000 105.7500 Du        
  37767 ****       137.7500 154.0000 106.0000 Du        
  37768 ****       137.7500 154.0000 106.2500 Du        
  37769 ****       137.7500 154.0000 106.5000 Du        
  37770 ****       137.7500 154.0000 106.7500 Du        
  37771 ****       137.7500 154.0000 107.0000 Du        
  37772 ****       137.7500 154.0000 107.2500 Du        
  37773 ****       137.7500 154.2500  97.5000 Du        
  37774 ****       137.7500 154.2500  97.7500 Du        
  37775 ****       137.7500 154.2500  98.0000 Du        
  37776 ****       137.7500 154.2500  98.2500 Du        
  37777 ****       137.7500 154.2500  98.5000 Du        
  37778 ****       137.7500 154.2500 105.5000 Du        
  37779 ****       137.7500 154.2500 105.7500 Du        
  37780 ****       137.7500 154.2500 106.0000 Du        
  37781 ****       137.7500 154.2500 106.2500 Du        
  37782 ****       137.7500 154.2500 106.5000 Du        
  37783 ****       137.7500 154.2500 106.7500 Du        
  37784 ****       137.7500 154.2500 107.0000 Du        
  37785 ****       137.7500 154.2500 107.2500 Du        
  37786 ****       137.7500 154.5000  98.2500 Du        
  37787 ****       137.7500 154.5000 105.2500 Du        
  37788 ****       137.7500 154.5000 105.5000 Du        
  37789 ****       137.7500 154.5000 105.7500 Du        
  37790 ****       137.7500 154.5000 106.0000 Du        
  37791 ****       137.7500 154.5000 106.2500 Du        
  37792 ****       137.7500 154.7500  98.2500 Du        
  37793 ****       137.7500 154.7500 105.2500 Du        
  37794 ****       137.7500 154.7500 105.5000 Du        
  37795 ****       137.7500 154.7500 105.7500 Du        
  37796 ****       137.7500 154.7500 106.0000 Du        
  37797 ****       137.7500 155.0000 105.2500 Du        
  37798 ****       137.7500 155.0000 105.5000 Du        
  37799 ****       137.7500 155.0000 105.7500 Du        
  37800 ****       137.7500 155.0000 106.0000 Du        
  37801 ****       137.7500 155.2500 105.2500 Du        
  37802 ****       137.7500 156.0000 144.5000 Du        
  37803 ****       137.7500 156.0000 144.7500 Du        
  37804 ****       137.7500 156.2500 144.2500 Du        
  37805 ****       137.7500 156.2500 144.5000 Du        
  37806 ****       137.7500 156.2500 144.7500 Du        
  37807 ****       137.7500 156.5000 144.5000 Du        
  37808 ****       137.7500 156.5000 144.7500 Du        
  37809 ****       137.7500 156.7500 144.2500 Du        
  37810 ****       137.7500 156.7500 144.5000 Du        
  37811 ****       137.7500 156.7500 144.7500 Du        
  37812 ****       137.7500 156.7500 145.0000 Du        
  37813 ****       137.7500 157.0000 144.2500 Du        
  37814 ****       137.7500 157.0000 144.5000 Du        
  37815 ****       137.7500 157.0000 144.7500 Du        
  37816 ****       137.7500 157.0000 145.0000 Du        
  37817 ****       137.7500 157.2500 144.5000 Du        
  37818 ****       137.7500 157.2500 144.7500 Du        
  37819 ****       137.7500 157.2500 145.0000 Du        
  37820 ****       137.7500 157.5000 144.5000 Du        
  37821 ****       137.7500 157.5000 144.7500 Du        
  37822 ****       137.7500 157.5000 145.0000 Du        
  37823 ****       137.7500 157.7500 144.7500 Du        
  37824 ****       137.7500 160.0000 155.0000 Du        
  37825 ****       137.7500 160.0000 155.2500 Du        
  37826 ****       137.7500 160.0000 155.5000 Du        
  37827 ****       137.7500 160.0000 155.7500 Du        
  37828 ****       137.7500 160.0000 156.0000 Du        
  37829 ****       137.7500 160.0000 156.2500 Du        
  37830 ****       137.7500 160.0000 156.5000 Du        
  37831 ****       137.7500 160.2500 153.7500 Du        
  37832 ****       137.7500 160.2500 154.0000 Du        
  37833 ****       137.7500 160.2500 154.2500 Du        
  37834 ****       137.7500 160.2500 154.5000 Du        
  37835 ****       137.7500 160.2500 154.7500 Du        
  37836 ****       137.7500 160.2500 155.0000 Du        
  37837 ****       137.7500 160.2500 155.2500 Du        
  37838 ****       137.7500 160.2500 155.5000 Du        
  37839 ****       137.7500 160.2500 155.7500 Du        
  37840 ****       137.7500 160.2500 156.0000 Du        
  37841 ****       137.7500 160.2500 156.2500 Du        
  37842 ****       137.7500 160.2500 156.5000 Du        
  37843 ****       137.7500 160.2500 156.7500 Du        
  37844 ****       137.7500 160.5000 153.5000 Du        
  37845 ****       137.7500 160.5000 153.7500 Du        
  37846 ****       137.7500 160.5000 154.0000 Du        
  37847 ****       137.7500 160.5000 154.2500 Du        
  37848 ****       137.7500 160.5000 154.5000 Du        
  37849 ****       137.7500 160.5000 154.7500 Du        
  37850 ****       137.7500 160.5000 155.0000 Du        
  37851 ****       137.7500 160.5000 155.2500 Du        
  37852 ****       137.7500 160.5000 155.5000 Du        
  37853 ****       137.7500 160.5000 155.7500 Du        
  37854 ****       137.7500 160.5000 156.0000 Du        
  37855 ****       137.7500 160.5000 156.2500 Du        
  37856 ****       137.7500 160.5000 156.5000 Du        
  37857 ****       137.7500 160.5000 156.7500 Du        
  37858 ****       137.7500 160.7500 153.7500 Du        
  37859 ****       137.7500 160.7500 154.0000 Du        
  37860 ****       137.7500 160.7500 154.2500 Du        
  37861 ****       137.7500 160.7500 154.5000 Du        
  37862 ****       137.7500 160.7500 154.7500 Du        
  37863 ****       137.7500 160.7500 155.0000 Du        
  37864 ****       137.7500 160.7500 155.2500 Du        
  37865 ****       137.7500 160.7500 155.5000 Du        
  37866 ****       137.7500 160.7500 155.7500 Du        
  37867 ****       137.7500 160.7500 156.0000 Du        
  37868 ****       137.7500 160.7500 156.2500 Du        
  37869 ****       137.7500 160.7500 156.5000 Du        
  37870 ****       137.7500 161.0000 154.2500 Du        
  37871 ****       137.7500 161.0000 154.5000 Du        
  37872 ****       137.7500 161.0000 154.7500 Du        
  37873 ****       137.7500 161.0000 155.0000 Du        
  37874 ****       137.7500 161.0000 155.2500 Du        
  37875 ****       137.7500 161.0000 155.5000 Du        
  37876 ****       137.7500 161.0000 155.7500 Du        
  37877 ****       137.7500 161.0000 156.0000 Du        
  37878 ****       138.0000 125.0000 102.7500 Du        
  37879 ****       138.0000 125.0000 103.0000 Du        
  37880 ****       138.0000 125.0000 103.2500 Du        
  37881 ****       138.0000 125.2500 102.5000 Du        
  37882 ****       138.0000 125.2500 102.7500 Du        
  37883 ****       138.0000 125.2500 103.0000 Du        
  37884 ****       138.0000 125.2500 103.2500 Du        
  37885 ****       138.0000 125.5000 102.2500 Du        
  37886 ****       138.0000 125.5000 102.5000 Du        
  37887 ****       138.0000 125.5000 102.7500 Du        
  37888 ****       138.0000 125.5000 103.0000 Du        
  37889 ****       138.0000 125.5000 103.2500 Du        
  37890 ****       138.0000 125.5000 103.5000 Du        
  37891 ****       138.0000 125.5000 103.7500 Du        
  37892 ****       138.0000 125.7500 101.5000 Du        
  37893 ****       138.0000 125.7500 101.7500 Du        
  37894 ****       138.0000 125.7500 102.0000 Du        
  37895 ****       138.0000 125.7500 102.2500 Du        
  37896 ****       138.0000 125.7500 102.5000 Du        
  37897 ****       138.0000 125.7500 102.7500 Du        
  37898 ****       138.0000 125.7500 103.0000 Du        
  37899 ****       138.0000 125.7500 103.2500 Du        
  37900 ****       138.0000 125.7500 103.5000 Du        
  37901 ****       138.0000 125.7500 103.7500 Du        
  37902 ****       138.0000 126.0000 101.5000 Du        
  37903 ****       138.0000 126.0000 101.7500 Du        
  37904 ****       138.0000 126.0000 102.0000 Du        
  37905 ****       138.0000 126.0000 102.2500 Du        
  37906 ****       138.0000 126.0000 102.5000 Du        
  37907 ****       138.0000 126.0000 102.7500 Du        
  37908 ****       138.0000 126.0000 103.0000 Du        
  37909 ****       138.0000 126.0000 103.2500 Du        
  37910 ****       138.0000 126.0000 103.5000 Du        
  37911 ****       138.0000 126.0000 103.7500 Du        
  37912 ****       138.0000 126.0000 104.0000 Du        
  37913 ****       138.0000 126.2500 101.2500 Du        
  37914 ****       138.0000 126.2500 101.5000 Du        
  37915 ****       138.0000 126.2500 101.7500 Du        
  37916 ****       138.0000 126.2500 102.0000 Du        
  37917 ****       138.0000 126.2500 102.2500 Du        
  37918 ****       138.0000 126.2500 102.5000 Du        
  37919 ****       138.0000 126.2500 102.7500 Du        
  37920 ****       138.0000 126.2500 103.0000 Du        
  37921 ****       138.0000 126.2500 103.2500 Du        
  37922 ****       138.0000 126.2500 103.5000 Du        
  37923 ****       138.0000 126.2500 103.7500 Du        
  37924 ****       138.0000 126.2500 104.0000 Du        
  37925 ****       138.0000 126.5000 100.7500 Du        
  37926 ****       138.0000 126.5000 101.0000 Du        
  37927 ****       138.0000 126.5000 101.2500 Du        
  37928 ****       138.0000 126.5000 101.5000 Du        
  37929 ****       138.0000 126.5000 101.7500 Du        
  37930 ****       138.0000 126.5000 102.0000 Du        
  37931 ****       138.0000 126.5000 102.2500 Du        
  37932 ****       138.0000 126.5000 102.5000 Du        
  37933 ****       138.0000 126.5000 102.7500 Du        
  37934 ****       138.0000 126.5000 103.0000 Du        
  37935 ****       138.0000 126.5000 103.2500 Du        
  37936 ****       138.0000 126.5000 103.5000 Du        
  37937 ****       138.0000 126.5000 103.7500 Du        
  37938 ****       138.0000 126.5000 104.0000 Du        
  37939 ****       138.0000 126.5000 104.2500 Du        
  37940 ****       138.0000 126.7500 100.7500 Du        
  37941 ****       138.0000 126.7500 101.0000 Du        
  37942 ****       138.0000 126.7500 101.2500 Du        
  37943 ****       138.0000 126.7500 101.5000 Du        
  37944 ****       138.0000 126.7500 101.7500 Du        
  37945 ****       138.0000 126.7500 102.0000 Du        
  37946 ****       138.0000 126.7500 102.2500 Du        
  37947 ****       138.0000 126.7500 102.5000 Du        
  37948 ****       138.0000 126.7500 102.7500 Du        
  37949 ****       138.0000 126.7500 103.0000 Du        
  37950 ****       138.0000 126.7500 103.2500 Du        
  37951 ****       138.0000 126.7500 103.5000 Du        
  37952 ****       138.0000 126.7500 103.7500 Du        
  37953 ****       138.0000 126.7500 104.0000 Du        
  37954 ****       138.0000 126.7500 104.2500 Du        
  37955 ****       138.0000 127.0000 101.0000 Du        
  37956 ****       138.0000 127.0000 101.2500 Du        
  37957 ****       138.0000 127.0000 101.5000 Du        
  37958 ****       138.0000 127.0000 101.7500 Du        
  37959 ****       138.0000 127.0000 102.0000 Du        
  37960 ****       138.0000 127.0000 102.2500 Du        
  37961 ****       138.0000 127.0000 102.5000 Du        
  37962 ****       138.0000 127.0000 102.7500 Du        
  37963 ****       138.0000 127.0000 103.0000 Du        
  37964 ****       138.0000 127.0000 103.2500 Du        
  37965 ****       138.0000 127.0000 103.5000 Du        
  37966 ****       138.0000 127.0000 103.7500 Du        
  37967 ****       138.0000 127.0000 104.0000 Du        
  37968 ****       138.0000 127.0000 104.2500 Du        
  37969 ****       138.0000 127.0000 104.5000 Du        
  37970 ****       138.0000 127.0000 148.7500 Du        
  37971 ****       138.0000 127.2500 101.5000 Du        
  37972 ****       138.0000 127.2500 101.7500 Du        
  37973 ****       138.0000 127.2500 102.0000 Du        
  37974 ****       138.0000 127.2500 102.2500 Du        
  37975 ****       138.0000 127.2500 102.5000 Du        
  37976 ****       138.0000 127.2500 102.7500 Du        
  37977 ****       138.0000 127.2500 103.0000 Du        
  37978 ****       138.0000 127.2500 103.2500 Du        
  37979 ****       138.0000 127.2500 103.5000 Du        
  37980 ****       138.0000 127.2500 103.7500 Du        
  37981 ****       138.0000 127.2500 104.0000 Du        
  37982 ****       138.0000 127.2500 104.2500 Du        
  37983 ****       138.0000 127.2500 104.5000 Du        
  37984 ****       138.0000 127.2500 148.5000 Du        
  37985 ****       138.0000 127.2500 148.7500 Du        
  37986 ****       138.0000 127.5000  96.7500 Du        
  37987 ****       138.0000 127.5000 101.7500 Du        
  37988 ****       138.0000 127.5000 102.0000 Du        
  37989 ****       138.0000 127.5000 102.2500 Du        
  37990 ****       138.0000 127.5000 102.5000 Du        
  37991 ****       138.0000 127.5000 102.7500 Du        
  37992 ****       138.0000 127.5000 103.0000 Du        
  37993 ****       138.0000 127.5000 103.2500 Du        
  37994 ****       138.0000 127.5000 103.5000 Du        
  37995 ****       138.0000 127.5000 103.7500 Du        
  37996 ****       138.0000 127.5000 104.0000 Du        
  37997 ****       138.0000 127.5000 104.2500 Du        
  37998 ****       138.0000 127.5000 148.5000 Du        
  37999 ****       138.0000 127.5000 148.7500 Du        
  38000 ****       138.0000 127.5000 149.0000 Du        
  38001 ****       138.0000 127.7500 102.2500 Du        
  38002 ****       138.0000 127.7500 102.5000 Du        
  38003 ****       138.0000 127.7500 102.7500 Du        
  38004 ****       138.0000 127.7500 103.0000 Du        
  38005 ****       138.0000 127.7500 103.2500 Du        
  38006 ****       138.0000 127.7500 103.5000 Du        
  38007 ****       138.0000 127.7500 148.5000 Du        
  38008 ****       138.0000 127.7500 148.7500 Du        
  38009 ****       138.0000 127.7500 149.0000 Du        
  38010 ****       138.0000 128.0000 148.5000 Du        
  38011 ****       138.0000 128.0000 148.7500 Du        
  38012 ****       138.0000 128.0000 149.0000 Du        
  38013 ****       138.0000 128.0000 149.2500 Du        
  38014 ****       138.0000 128.2500 148.5000 Du        
  38015 ****       138.0000 128.2500 148.7500 Du        
  38016 ****       138.0000 128.2500 149.0000 Du        
  38017 ****       138.0000 128.2500 149.2500 Du        
  38018 ****       138.0000 128.2500 149.5000 Du        
  38019 ****       138.0000 128.5000 148.7500 Du        
  38020 ****       138.0000 128.5000 149.0000 Du        
  38021 ****       138.0000 128.5000 149.2500 Du        
  38022 ****       138.0000 128.5000 149.5000 Du        
  38023 ****       138.0000 128.5000 149.7500 Du        
  38024 ****       138.0000 128.7500 148.7500 Du        
  38025 ****       138.0000 128.7500 149.0000 Du        
  38026 ****       138.0000 128.7500 149.2500 Du        
  38027 ****       138.0000 128.7500 149.5000 Du        
  38028 ****       138.0000 128.7500 149.7500 Du        
  38029 ****       138.0000 129.0000 149.0000 Du        
  38030 ****       138.0000 129.0000 149.2500 Du        
  38031 ****       138.0000 129.0000 149.5000 Du        
  38032 ****       138.0000 129.5000 138.0000 Du        
  38033 ****       138.0000 129.5000 138.2500 Du        
  38034 ****       138.0000 129.5000 138.5000 Du        
  38035 ****       138.0000 129.5000 138.7500 Du        
  38036 ****       138.0000 129.7500 138.0000 Du        
  38037 ****       138.0000 129.7500 138.2500 Du        
  38038 ****       138.0000 129.7500 138.5000 Du        
  38039 ****       138.0000 129.7500 138.7500 Du        
  38040 ****       138.0000 129.7500 139.0000 Du        
  38041 ****       138.0000 129.7500 139.2500 Du        
  38042 ****       138.0000 130.0000 138.0000 Du        
  38043 ****       138.0000 130.0000 138.2500 Du        
  38044 ****       138.0000 130.0000 138.5000 Du        
  38045 ****       138.0000 130.0000 138.7500 Du        
  38046 ****       138.0000 130.0000 139.0000 Du        
  38047 ****       138.0000 130.0000 139.2500 Du        
  38048 ****       138.0000 130.0000 139.5000 Du        
  38049 ****       138.0000 130.2500 138.0000 Du        
  38050 ****       138.0000 130.2500 138.2500 Du        
  38051 ****       138.0000 130.2500 138.5000 Du        
  38052 ****       138.0000 130.2500 138.7500 Du        
  38053 ****       138.0000 130.2500 139.0000 Du        
  38054 ****       138.0000 130.2500 139.2500 Du        
  38055 ****       138.0000 130.2500 139.5000 Du        
  38056 ****       138.0000 130.5000 138.2500 Du        
  38057 ****       138.0000 130.5000 138.5000 Du        
  38058 ****       138.0000 130.5000 138.7500 Du        
  38059 ****       138.0000 130.5000 139.0000 Du        
  38060 ****       138.0000 130.5000 139.2500 Du        
  38061 ****       138.0000 130.5000 139.5000 Du        
  38062 ****       138.0000 130.7500 138.5000 Du        
  38063 ****       138.0000 130.7500 138.7500 Du        
  38064 ****       138.0000 130.7500 139.0000 Du        
  38065 ****       138.0000 130.7500 139.2500 Du        
  38066 ****       138.0000 130.7500 139.5000 Du        
  38067 ****       138.0000 130.7500 139.7500 Du        
  38068 ****       138.0000 131.0000 138.7500 Du        
  38069 ****       138.0000 131.0000 139.0000 Du        
  38070 ****       138.0000 131.0000 139.2500 Du        
  38071 ****       138.0000 131.0000 139.5000 Du        
  38072 ****       138.0000 131.0000 139.7500 Du        
  38073 ****       138.0000 131.2500 139.0000 Du        
  38074 ****       138.0000 131.2500 139.2500 Du        
  38075 ****       138.0000 131.2500 139.5000 Du        
  38076 ****       138.0000 131.2500 139.7500 Du        
  38077 ****       138.0000 131.5000 139.2500 Du        
  38078 ****       138.0000 134.0000 140.0000 Du        
  38079 ****       138.0000 134.7500 150.7500 Du        
  38080 ****       138.0000 134.7500 151.0000 Du        
  38081 ****       138.0000 134.7500 151.2500 Du        
  38082 ****       138.0000 134.7500 151.5000 Du        
  38083 ****       138.0000 135.0000 150.7500 Du        
  38084 ****       138.0000 135.0000 151.0000 Du        
  38085 ****       138.0000 135.0000 151.2500 Du        
  38086 ****       138.0000 135.0000 151.5000 Du        
  38087 ****       138.0000 135.0000 151.7500 Du        
  38088 ****       138.0000 135.2500 150.5000 Du        
  38089 ****       138.0000 135.2500 150.7500 Du        
  38090 ****       138.0000 135.2500 151.0000 Du        
  38091 ****       138.0000 135.2500 151.2500 Du        
  38092 ****       138.0000 135.2500 151.5000 Du        
  38093 ****       138.0000 135.5000 150.5000 Du        
  38094 ****       138.0000 135.5000 150.7500 Du        
  38095 ****       138.0000 135.5000 151.0000 Du        
  38096 ****       138.0000 135.5000 151.2500 Du        
  38097 ****       138.0000 135.7500 150.0000 Du        
  38098 ****       138.0000 135.7500 150.2500 Du        
  38099 ****       138.0000 135.7500 150.5000 Du        
  38100 ****       138.0000 135.7500 150.7500 Du        
  38101 ****       138.0000 135.7500 151.0000 Du        
  38102 ****       138.0000 136.0000 149.7500 Du        
  38103 ****       138.0000 136.0000 150.0000 Du        
  38104 ****       138.0000 136.0000 150.2500 Du        
  38105 ****       138.0000 136.0000 150.5000 Du        
  38106 ****       138.0000 136.0000 150.7500 Du        
  38107 ****       138.0000 136.0000 151.0000 Du        
  38108 ****       138.0000 136.2500 149.5000 Du        
  38109 ****       138.0000 136.2500 149.7500 Du        
  38110 ****       138.0000 136.2500 150.0000 Du        
  38111 ****       138.0000 136.2500 150.2500 Du        
  38112 ****       138.0000 136.2500 150.5000 Du        
  38113 ****       138.0000 136.2500 150.7500 Du        
  38114 ****       138.0000 136.5000 149.5000 Du        
  38115 ****       138.0000 136.5000 149.7500 Du        
  38116 ****       138.0000 136.5000 150.0000 Du        
  38117 ****       138.0000 136.5000 150.2500 Du        
  38118 ****       138.0000 136.5000 150.5000 Du        
  38119 ****       138.0000 136.5000 150.7500 Du        
  38120 ****       138.0000 136.7500 149.2500 Du        
  38121 ****       138.0000 136.7500 149.5000 Du        
  38122 ****       138.0000 136.7500 149.7500 Du        
  38123 ****       138.0000 136.7500 150.0000 Du        
  38124 ****       138.0000 136.7500 150.2500 Du        
  38125 ****       138.0000 136.7500 150.5000 Du        
  38126 ****       138.0000 137.0000 149.2500 Du        
  38127 ****       138.0000 137.0000 149.5000 Du        
  38128 ****       138.0000 137.0000 149.7500 Du        
  38129 ****       138.0000 137.0000 150.0000 Du        
  38130 ****       138.0000 137.2500 149.0000 Du        
  38131 ****       138.0000 137.2500 149.2500 Du        
  38132 ****       138.0000 137.2500 149.5000 Du        
  38133 ****       138.0000 137.2500 149.7500 Du        
  38134 ****       138.0000 137.5000 149.0000 Du        
  38135 ****       138.0000 137.5000 149.2500 Du        
  38136 ****       138.0000 137.5000 149.5000 Du        
  38137 ****       138.0000 137.7500 148.7500 Du        
  38138 ****       138.0000 142.2500  92.7500 Du        
  38139 ****       138.0000 142.5000  92.5000 Du        
  38140 ****       138.0000 142.5000  92.7500 Du        
  38141 ****       138.0000 142.7500  92.2500 Du        
  38142 ****       138.0000 142.7500  92.5000 Du        
  38143 ****       138.0000 142.7500  92.7500 Du        
  38144 ****       138.0000 143.0000  91.7500 Du        
  38145 ****       138.0000 143.0000  92.0000 Du        
  38146 ****       138.0000 143.0000  92.2500 Du        
  38147 ****       138.0000 143.0000  92.5000 Du        
  38148 ****       138.0000 143.0000  92.7500 Du        
  38149 ****       138.0000 143.2500  91.7500 Du        
  38150 ****       138.0000 143.2500  92.0000 Du        
  38151 ****       138.0000 143.2500  92.2500 Du        
  38152 ****       138.0000 143.2500  92.5000 Du        
  38153 ****       138.0000 143.2500 130.5000 Du        
  38154 ****       138.0000 143.2500 130.7500 Du        
  38155 ****       138.0000 143.2500 131.0000 Du        
  38156 ****       138.0000 143.5000  92.2500 Du        
  38157 ****       138.0000 143.5000 130.2500 Du        
  38158 ****       138.0000 143.5000 130.5000 Du        
  38159 ****       138.0000 143.5000 130.7500 Du        
  38160 ****       138.0000 143.5000 131.0000 Du        
  38161 ****       138.0000 143.5000 131.2500 Du        
  38162 ****       138.0000 143.7500  92.2500 Du        
  38163 ****       138.0000 143.7500 130.2500 Du        
  38164 ****       138.0000 143.7500 130.5000 Du        
  38165 ****       138.0000 143.7500 130.7500 Du        
  38166 ****       138.0000 143.7500 131.0000 Du        
  38167 ****       138.0000 143.7500 131.2500 Du        
  38168 ****       138.0000 143.7500 131.5000 Du        
  38169 ****       138.0000 144.0000  92.0000 Du        
  38170 ****       138.0000 144.0000  92.2500 Du        
  38171 ****       138.0000 144.0000 130.0000 Du        
  38172 ****       138.0000 144.0000 130.2500 Du        
  38173 ****       138.0000 144.0000 130.5000 Du        
  38174 ****       138.0000 144.0000 130.7500 Du        
  38175 ****       138.0000 144.0000 131.0000 Du        
  38176 ****       138.0000 144.0000 131.2500 Du        
  38177 ****       138.0000 144.0000 131.5000 Du        
  38178 ****       138.0000 144.0000 131.7500 Du        
  38179 ****       138.0000 144.0000 132.0000 Du        
  38180 ****       138.0000 144.2500  92.0000 Du        
  38181 ****       138.0000 144.2500 129.7500 Du        
  38182 ****       138.0000 144.2500 130.0000 Du        
  38183 ****       138.0000 144.2500 130.2500 Du        
  38184 ****       138.0000 144.2500 130.5000 Du        
  38185 ****       138.0000 144.2500 130.7500 Du        
  38186 ****       138.0000 144.2500 131.0000 Du        
  38187 ****       138.0000 144.2500 131.2500 Du        
  38188 ****       138.0000 144.2500 131.5000 Du        
  38189 ****       138.0000 144.2500 131.7500 Du        
  38190 ****       138.0000 144.2500 132.0000 Du        
  38191 ****       138.0000 144.5000 130.0000 Du        
  38192 ****       138.0000 144.5000 130.2500 Du        
  38193 ****       138.0000 144.5000 130.5000 Du        
  38194 ****       138.0000 144.5000 130.7500 Du        
  38195 ****       138.0000 144.5000 131.0000 Du        
  38196 ****       138.0000 144.5000 131.2500 Du        
  38197 ****       138.0000 144.5000 131.5000 Du        
  38198 ****       138.0000 144.5000 131.7500 Du        
  38199 ****       138.0000 144.5000 132.0000 Du        
  38200 ****       138.0000 144.7500  92.0000 Du        
  38201 ****       138.0000 145.0000  91.7500 Du        
  38202 ****       138.0000 145.0000  92.0000 Du        
  38203 ****       138.0000 151.7500 106.7500 Du        
  38204 ****       138.0000 151.7500 107.0000 Du        
  38205 ****       138.0000 151.7500 107.2500 Du        
  38206 ****       138.0000 151.7500 107.5000 Du        
  38207 ****       138.0000 152.0000 106.5000 Du        
  38208 ****       138.0000 152.0000 106.7500 Du        
  38209 ****       138.0000 152.0000 107.0000 Du        
  38210 ****       138.0000 152.0000 107.2500 Du        
  38211 ****       138.0000 152.0000 107.5000 Du        
  38212 ****       138.0000 152.0000 107.7500 Du        
  38213 ****       138.0000 152.2500 106.5000 Du        
  38214 ****       138.0000 152.2500 106.7500 Du        
  38215 ****       138.0000 152.2500 107.0000 Du        
  38216 ****       138.0000 152.2500 107.2500 Du        
  38217 ****       138.0000 152.2500 107.5000 Du        
  38218 ****       138.0000 152.2500 107.7500 Du        
  38219 ****       138.0000 152.2500 108.0000 Du        
  38220 ****       138.0000 152.2500 108.2500 Du        
  38221 ****       138.0000 152.5000 106.2500 Du        
  38222 ****       138.0000 152.5000 106.5000 Du        
  38223 ****       138.0000 152.5000 106.7500 Du        
  38224 ****       138.0000 152.5000 107.0000 Du        
  38225 ****       138.0000 152.5000 107.2500 Du        
  38226 ****       138.0000 152.5000 107.5000 Du        
  38227 ****       138.0000 152.5000 107.7500 Du        
  38228 ****       138.0000 152.5000 108.0000 Du        
  38229 ****       138.0000 152.5000 108.2500 Du        
  38230 ****       138.0000 152.7500 106.2500 Du        
  38231 ****       138.0000 152.7500 106.5000 Du        
  38232 ****       138.0000 152.7500 106.7500 Du        
  38233 ****       138.0000 152.7500 107.0000 Du        
  38234 ****       138.0000 152.7500 107.2500 Du        
  38235 ****       138.0000 152.7500 107.5000 Du        
  38236 ****       138.0000 152.7500 107.7500 Du        
  38237 ****       138.0000 152.7500 108.0000 Du        
  38238 ****       138.0000 152.7500 108.2500 Du        
  38239 ****       138.0000 152.7500 108.5000 Du        
  38240 ****       138.0000 152.7500 108.7500 Du        
  38241 ****       138.0000 153.0000 106.0000 Du        
  38242 ****       138.0000 153.0000 106.2500 Du        
  38243 ****       138.0000 153.0000 106.5000 Du        
  38244 ****       138.0000 153.0000 106.7500 Du        
  38245 ****       138.0000 153.0000 107.0000 Du        
  38246 ****       138.0000 153.0000 107.2500 Du        
  38247 ****       138.0000 153.0000 107.5000 Du        
  38248 ****       138.0000 153.0000 107.7500 Du        
  38249 ****       138.0000 153.0000 108.0000 Du        
  38250 ****       138.0000 153.0000 108.2500 Du        
  38251 ****       138.0000 153.0000 108.5000 Du        
  38252 ****       138.0000 153.0000 108.7500 Du        
  38253 ****       138.0000 153.0000 109.0000 Du        
  38254 ****       138.0000 153.2500 106.0000 Du        
  38255 ****       138.0000 153.2500 106.2500 Du        
  38256 ****       138.0000 153.2500 106.5000 Du        
  38257 ****       138.0000 153.2500 106.7500 Du        
  38258 ****       138.0000 153.2500 107.0000 Du        
  38259 ****       138.0000 153.2500 107.2500 Du        
  38260 ****       138.0000 153.2500 107.5000 Du        
  38261 ****       138.0000 153.2500 107.7500 Du        
  38262 ****       138.0000 153.2500 108.0000 Du        
  38263 ****       138.0000 153.2500 108.2500 Du        
  38264 ****       138.0000 153.2500 108.5000 Du        
  38265 ****       138.0000 153.2500 108.7500 Du        
  38266 ****       138.0000 153.2500 109.0000 Du        
  38267 ****       138.0000 153.5000  97.7500 Du        
  38268 ****       138.0000 153.5000  98.0000 Du        
  38269 ****       138.0000 153.5000  98.2500 Du        
  38270 ****       138.0000 153.5000 106.0000 Du        
  38271 ****       138.0000 153.5000 106.2500 Du        
  38272 ****       138.0000 153.5000 106.5000 Du        
  38273 ****       138.0000 153.5000 106.7500 Du        
  38274 ****       138.0000 153.5000 107.0000 Du        
  38275 ****       138.0000 153.5000 107.2500 Du        
  38276 ****       138.0000 153.5000 107.5000 Du        
  38277 ****       138.0000 153.5000 107.7500 Du        
  38278 ****       138.0000 153.5000 108.0000 Du        
  38279 ****       138.0000 153.5000 108.2500 Du        
  38280 ****       138.0000 153.7500  97.2500 Du        
  38281 ****       138.0000 153.7500  97.5000 Du        
  38282 ****       138.0000 153.7500  97.7500 Du        
  38283 ****       138.0000 153.7500  98.0000 Du        
  38284 ****       138.0000 153.7500  98.2500 Du        
  38285 ****       138.0000 153.7500  98.5000 Du        
  38286 ****       138.0000 153.7500 105.7500 Du        
  38287 ****       138.0000 153.7500 106.0000 Du        
  38288 ****       138.0000 153.7500 106.2500 Du        
  38289 ****       138.0000 153.7500 106.5000 Du        
  38290 ****       138.0000 153.7500 106.7500 Du        
  38291 ****       138.0000 153.7500 107.0000 Du        
  38292 ****       138.0000 153.7500 107.2500 Du        
  38293 ****       138.0000 153.7500 107.5000 Du        
  38294 ****       138.0000 153.7500 107.7500 Du        
  38295 ****       138.0000 153.7500 108.0000 Du        
  38296 ****       138.0000 153.7500 108.2500 Du        
  38297 ****       138.0000 154.0000  97.0000 Du        
  38298 ****       138.0000 154.0000  97.2500 Du        
  38299 ****       138.0000 154.0000  97.5000 Du        
  38300 ****       138.0000 154.0000  97.7500 Du        
  38301 ****       138.0000 154.0000  98.0000 Du        
  38302 ****       138.0000 154.0000  98.2500 Du        
  38303 ****       138.0000 154.0000  98.5000 Du        
  38304 ****       138.0000 154.0000  98.7500 Du        
  38305 ****       138.0000 154.0000 105.7500 Du        
  38306 ****       138.0000 154.0000 106.0000 Du        
  38307 ****       138.0000 154.0000 106.2500 Du        
  38308 ****       138.0000 154.0000 106.5000 Du        
  38309 ****       138.0000 154.0000 106.7500 Du        
  38310 ****       138.0000 154.0000 107.0000 Du        
  38311 ****       138.0000 154.0000 107.2500 Du        
  38312 ****       138.0000 154.2500  97.2500 Du        
  38313 ****       138.0000 154.2500  97.5000 Du        
  38314 ****       138.0000 154.2500  97.7500 Du        
  38315 ****       138.0000 154.2500  98.0000 Du        
  38316 ****       138.0000 154.2500  98.2500 Du        
  38317 ****       138.0000 154.2500  98.5000 Du        
  38318 ****       138.0000 154.2500  98.7500 Du        
  38319 ****       138.0000 154.2500 105.5000 Du        
  38320 ****       138.0000 154.2500 105.7500 Du        
  38321 ****       138.0000 154.2500 106.0000 Du        
  38322 ****       138.0000 154.2500 106.2500 Du        
  38323 ****       138.0000 154.2500 106.5000 Du        
  38324 ****       138.0000 154.2500 106.7500 Du        
  38325 ****       138.0000 154.2500 107.0000 Du        
  38326 ****       138.0000 154.2500 107.2500 Du        
  38327 ****       138.0000 154.5000  97.7500 Du        
  38328 ****       138.0000 154.5000  98.0000 Du        
  38329 ****       138.0000 154.5000  98.2500 Du        
  38330 ****       138.0000 154.5000  98.5000 Du        
  38331 ****       138.0000 154.5000  98.7500 Du        
  38332 ****       138.0000 154.5000 105.5000 Du        
  38333 ****       138.0000 154.5000 105.7500 Du        
  38334 ****       138.0000 154.5000 106.0000 Du        
  38335 ****       138.0000 154.5000 106.2500 Du        
  38336 ****       138.0000 154.7500  98.0000 Du        
  38337 ****       138.0000 154.7500  98.2500 Du        
  38338 ****       138.0000 154.7500  98.5000 Du        
  38339 ****       138.0000 154.7500  98.7500 Du        
  38340 ****       138.0000 154.7500 105.2500 Du        
  38341 ****       138.0000 154.7500 105.5000 Du        
  38342 ****       138.0000 154.7500 105.7500 Du        
  38343 ****       138.0000 154.7500 106.0000 Du        
  38344 ****       138.0000 154.7500 106.2500 Du        
  38345 ****       138.0000 155.0000  98.5000 Du        
  38346 ****       138.0000 155.0000 105.0000 Du        
  38347 ****       138.0000 155.0000 105.2500 Du        
  38348 ****       138.0000 155.0000 105.5000 Du        
  38349 ****       138.0000 155.0000 105.7500 Du        
  38350 ****       138.0000 155.0000 106.0000 Du        
  38351 ****       138.0000 155.2500 105.2500 Du        
  38352 ****       138.0000 155.2500 105.5000 Du        
  38353 ****       138.0000 156.2500 144.5000 Du        
  38354 ****       138.0000 156.5000 144.5000 Du        
  38355 ****       138.0000 156.7500 144.2500 Du        
  38356 ****       138.0000 156.7500 144.5000 Du        
  38357 ****       138.0000 156.7500 144.7500 Du        
  38358 ****       138.0000 157.0000 144.2500 Du        
  38359 ****       138.0000 157.0000 144.5000 Du        
  38360 ****       138.0000 157.0000 144.7500 Du        
  38361 ****       138.0000 157.2500 144.5000 Du        
  38362 ****       138.0000 157.2500 144.7500 Du        
  38363 ****       138.0000 157.5000 144.5000 Du        
  38364 ****       138.0000 157.5000 144.7500 Du        
  38365 ****       138.0000 157.7500 144.5000 Du        
  38366 ****       138.0000 157.7500 144.7500 Du        
  38367 ****       138.0000 160.0000 155.5000 Du        
  38368 ****       138.0000 160.0000 155.7500 Du        
  38369 ****       138.0000 160.0000 156.0000 Du        
  38370 ****       138.0000 160.0000 156.2500 Du        
  38371 ****       138.0000 160.2500 155.0000 Du        
  38372 ****       138.0000 160.2500 155.2500 Du        
  38373 ****       138.0000 160.2500 155.5000 Du        
  38374 ****       138.0000 160.2500 155.7500 Du        
  38375 ****       138.0000 160.2500 156.0000 Du        
  38376 ****       138.0000 160.2500 156.2500 Du        
  38377 ****       138.0000 160.2500 156.5000 Du        
  38378 ****       138.0000 160.2500 156.7500 Du        
  38379 ****       138.0000 160.2500 157.0000 Du        
  38380 ****       138.0000 160.5000 154.7500 Du        
  38381 ****       138.0000 160.5000 155.0000 Du        
  38382 ****       138.0000 160.5000 155.2500 Du        
  38383 ****       138.0000 160.5000 155.5000 Du        
  38384 ****       138.0000 160.5000 155.7500 Du        
  38385 ****       138.0000 160.5000 156.0000 Du        
  38386 ****       138.0000 160.5000 156.2500 Du        
  38387 ****       138.0000 160.5000 156.5000 Du        
  38388 ****       138.0000 160.5000 156.7500 Du        
  38389 ****       138.0000 160.7500 154.2500 Du        
  38390 ****       138.0000 160.7500 154.5000 Du        
  38391 ****       138.0000 160.7500 154.7500 Du        
  38392 ****       138.0000 160.7500 155.0000 Du        
  38393 ****       138.0000 160.7500 155.2500 Du        
  38394 ****       138.0000 160.7500 155.5000 Du        
  38395 ****       138.0000 160.7500 155.7500 Du        
  38396 ****       138.0000 160.7500 156.0000 Du        
  38397 ****       138.0000 160.7500 156.2500 Du        
  38398 ****       138.0000 160.7500 156.5000 Du        
  38399 ****       138.0000 161.0000 155.0000 Du        
  38400 ****       138.0000 161.0000 155.2500 Du        
  38401 ****       138.0000 161.0000 155.5000 Du        
  38402 ****       138.0000 161.0000 155.7500 Du        
  38403 ****       138.0000 161.0000 156.0000 Du        
  38404 ****       138.0000 161.0000 156.2500 Du        
  38405 ****       138.2500 125.2500 102.7500 Du        
  38406 ****       138.2500 125.2500 103.0000 Du        
  38407 ****       138.2500 125.5000 102.5000 Du        
  38408 ****       138.2500 125.5000 102.7500 Du        
  38409 ****       138.2500 125.5000 103.0000 Du        
  38410 ****       138.2500 125.5000 103.2500 Du        
  38411 ****       138.2500 125.7500 101.7500 Du        
  38412 ****       138.2500 125.7500 102.0000 Du        
  38413 ****       138.2500 125.7500 102.2500 Du        
  38414 ****       138.2500 125.7500 102.5000 Du        
  38415 ****       138.2500 125.7500 102.7500 Du        
  38416 ****       138.2500 125.7500 103.0000 Du        
  38417 ****       138.2500 125.7500 103.2500 Du        
  38418 ****       138.2500 125.7500 103.5000 Du        
  38419 ****       138.2500 126.0000 101.5000 Du        
  38420 ****       138.2500 126.0000 101.7500 Du        
  38421 ****       138.2500 126.0000 102.0000 Du        
  38422 ****       138.2500 126.0000 102.2500 Du        
  38423 ****       138.2500 126.0000 102.5000 Du        
  38424 ****       138.2500 126.0000 102.7500 Du        
  38425 ****       138.2500 126.0000 103.0000 Du        
  38426 ****       138.2500 126.0000 103.2500 Du        
  38427 ****       138.2500 126.0000 103.5000 Du        
  38428 ****       138.2500 126.0000 103.7500 Du        
  38429 ****       138.2500 126.2500 101.5000 Du        
  38430 ****       138.2500 126.2500 101.7500 Du        
  38431 ****       138.2500 126.2500 102.0000 Du        
  38432 ****       138.2500 126.2500 102.2500 Du        
  38433 ****       138.2500 126.2500 102.5000 Du        
  38434 ****       138.2500 126.2500 102.7500 Du        
  38435 ****       138.2500 126.2500 103.0000 Du        
  38436 ****       138.2500 126.2500 103.2500 Du        
  38437 ****       138.2500 126.2500 103.5000 Du        
  38438 ****       138.2500 126.2500 103.7500 Du        
  38439 ****       138.2500 126.5000 101.0000 Du        
  38440 ****       138.2500 126.5000 101.2500 Du        
  38441 ****       138.2500 126.5000 101.5000 Du        
  38442 ****       138.2500 126.5000 101.7500 Du        
  38443 ****       138.2500 126.5000 102.0000 Du        
  38444 ****       138.2500 126.5000 102.2500 Du        
  38445 ****       138.2500 126.5000 102.5000 Du        
  38446 ****       138.2500 126.5000 102.7500 Du        
  38447 ****       138.2500 126.5000 103.0000 Du        
  38448 ****       138.2500 126.5000 103.2500 Du        
  38449 ****       138.2500 126.5000 103.5000 Du        
  38450 ****       138.2500 126.5000 103.7500 Du        
  38451 ****       138.2500 126.5000 104.0000 Du        
  38452 ****       138.2500 126.7500 100.7500 Du        
  38453 ****       138.2500 126.7500 101.0000 Du        
  38454 ****       138.2500 126.7500 101.2500 Du        
  38455 ****       138.2500 126.7500 101.5000 Du        
  38456 ****       138.2500 126.7500 101.7500 Du        
  38457 ****       138.2500 126.7500 102.0000 Du        
  38458 ****       138.2500 126.7500 102.2500 Du        
  38459 ****       138.2500 126.7500 102.5000 Du        
  38460 ****       138.2500 126.7500 102.7500 Du        
  38461 ****       138.2500 126.7500 103.0000 Du        
  38462 ****       138.2500 126.7500 103.2500 Du        
  38463 ****       138.2500 126.7500 103.5000 Du        
  38464 ****       138.2500 126.7500 103.7500 Du        
  38465 ****       138.2500 126.7500 104.0000 Du        
  38466 ****       138.2500 126.7500 104.2500 Du        
  38467 ****       138.2500 126.7500 148.7500 Du        
  38468 ****       138.2500 127.0000 101.2500 Du        
  38469 ****       138.2500 127.0000 101.5000 Du        
  38470 ****       138.2500 127.0000 101.7500 Du        
  38471 ****       138.2500 127.0000 102.0000 Du        
  38472 ****       138.2500 127.0000 102.2500 Du        
  38473 ****       138.2500 127.0000 102.5000 Du        
  38474 ****       138.2500 127.0000 102.7500 Du        
  38475 ****       138.2500 127.0000 103.0000 Du        
  38476 ****       138.2500 127.0000 103.2500 Du        
  38477 ****       138.2500 127.0000 103.5000 Du        
  38478 ****       138.2500 127.0000 103.7500 Du        
  38479 ****       138.2500 127.0000 104.0000 Du        
  38480 ****       138.2500 127.0000 104.2500 Du        
  38481 ****       138.2500 127.0000 148.5000 Du        
  38482 ****       138.2500 127.0000 148.7500 Du        
  38483 ****       138.2500 127.0000 149.0000 Du        
  38484 ****       138.2500 127.2500 101.7500 Du        
  38485 ****       138.2500 127.2500 102.0000 Du        
  38486 ****       138.2500 127.2500 102.2500 Du        
  38487 ****       138.2500 127.2500 102.5000 Du        
  38488 ****       138.2500 127.2500 102.7500 Du        
  38489 ****       138.2500 127.2500 103.0000 Du        
  38490 ****       138.2500 127.2500 103.2500 Du        
  38491 ****       138.2500 127.2500 103.5000 Du        
  38492 ****       138.2500 127.2500 103.7500 Du        
  38493 ****       138.2500 127.2500 104.0000 Du        
  38494 ****       138.2500 127.2500 104.2500 Du        
  38495 ****       138.2500 127.2500 148.5000 Du        
  38496 ****       138.2500 127.2500 148.7500 Du        
  38497 ****       138.2500 127.2500 149.0000 Du        
  38498 ****       138.2500 127.5000  96.7500 Du        
  38499 ****       138.2500 127.5000 102.0000 Du        
  38500 ****       138.2500 127.5000 102.2500 Du        
  38501 ****       138.2500 127.5000 102.5000 Du        
  38502 ****       138.2500 127.5000 102.7500 Du        
  38503 ****       138.2500 127.5000 103.0000 Du        
  38504 ****       138.2500 127.5000 103.2500 Du        
  38505 ****       138.2500 127.5000 103.5000 Du        
  38506 ****       138.2500 127.5000 103.7500 Du        
  38507 ****       138.2500 127.5000 104.0000 Du        
  38508 ****       138.2500 127.5000 148.5000 Du        
  38509 ****       138.2500 127.5000 148.7500 Du        
  38510 ****       138.2500 127.5000 149.0000 Du        
  38511 ****       138.2500 127.7500 102.5000 Du        
  38512 ****       138.2500 127.7500 102.7500 Du        
  38513 ****       138.2500 127.7500 148.5000 Du        
  38514 ****       138.2500 127.7500 148.7500 Du        
  38515 ****       138.2500 127.7500 149.0000 Du        
  38516 ****       138.2500 127.7500 149.2500 Du        
  38517 ****       138.2500 128.0000 148.5000 Du        
  38518 ****       138.2500 128.0000 148.7500 Du        
  38519 ****       138.2500 128.0000 149.0000 Du        
  38520 ****       138.2500 128.0000 149.2500 Du        
  38521 ****       138.2500 128.0000 149.5000 Du        
  38522 ****       138.2500 128.2500 141.5000 Du        
  38523 ****       138.2500 128.2500 141.7500 Du        
  38524 ****       138.2500 128.2500 148.5000 Du        
  38525 ****       138.2500 128.2500 148.7500 Du        
  38526 ****       138.2500 128.2500 149.0000 Du        
  38527 ****       138.2500 128.2500 149.2500 Du        
  38528 ****       138.2500 128.2500 149.5000 Du        
  38529 ****       138.2500 128.2500 149.7500 Du        
  38530 ****       138.2500 128.5000 141.5000 Du        
  38531 ****       138.2500 128.5000 148.7500 Du        
  38532 ****       138.2500 128.5000 149.0000 Du        
  38533 ****       138.2500 128.5000 149.2500 Du        
  38534 ****       138.2500 128.5000 149.5000 Du        
  38535 ****       138.2500 128.5000 149.7500 Du        
  38536 ****       138.2500 128.7500 141.7500 Du        
  38537 ****       138.2500 128.7500 148.7500 Du        
  38538 ****       138.2500 128.7500 149.0000 Du        
  38539 ****       138.2500 128.7500 149.2500 Du        
  38540 ****       138.2500 128.7500 149.5000 Du        
  38541 ****       138.2500 129.0000 149.2500 Du        
  38542 ****       138.2500 129.0000 149.5000 Du        
  38543 ****       138.2500 129.5000 138.0000 Du        
  38544 ****       138.2500 129.5000 138.2500 Du        
  38545 ****       138.2500 129.5000 138.5000 Du        
  38546 ****       138.2500 129.7500 138.0000 Du        
  38547 ****       138.2500 129.7500 138.2500 Du        
  38548 ****       138.2500 129.7500 138.5000 Du        
  38549 ****       138.2500 129.7500 138.7500 Du        
  38550 ****       138.2500 129.7500 139.0000 Du        
  38551 ****       138.2500 129.7500 139.2500 Du        
  38552 ****       138.2500 129.7500 139.5000 Du        
  38553 ****       138.2500 129.7500 139.7500 Du        
  38554 ****       138.2500 130.0000 138.0000 Du        
  38555 ****       138.2500 130.0000 138.2500 Du        
  38556 ****       138.2500 130.0000 138.5000 Du        
  38557 ****       138.2500 130.0000 138.7500 Du        
  38558 ****       138.2500 130.0000 139.0000 Du        
  38559 ****       138.2500 130.0000 139.2500 Du        
  38560 ****       138.2500 130.0000 139.5000 Du        
  38561 ****       138.2500 130.0000 139.7500 Du        
  38562 ****       138.2500 130.2500 138.0000 Du        
  38563 ****       138.2500 130.2500 138.2500 Du        
  38564 ****       138.2500 130.2500 138.5000 Du        
  38565 ****       138.2500 130.2500 138.7500 Du        
  38566 ****       138.2500 130.2500 139.0000 Du        
  38567 ****       138.2500 130.2500 139.2500 Du        
  38568 ****       138.2500 130.2500 139.5000 Du        
  38569 ****       138.2500 130.2500 139.7500 Du        
  38570 ****       138.2500 130.2500 140.0000 Du        
  38571 ****       138.2500 130.5000 138.2500 Du        
  38572 ****       138.2500 130.5000 138.5000 Du        
  38573 ****       138.2500 130.5000 138.7500 Du        
  38574 ****       138.2500 130.5000 139.0000 Du        
  38575 ****       138.2500 130.5000 139.2500 Du        
  38576 ****       138.2500 130.5000 139.5000 Du        
  38577 ****       138.2500 130.5000 139.7500 Du        
  38578 ****       138.2500 130.7500 138.5000 Du        
  38579 ****       138.2500 130.7500 138.7500 Du        
  38580 ****       138.2500 130.7500 139.0000 Du        
  38581 ****       138.2500 130.7500 139.2500 Du        
  38582 ****       138.2500 130.7500 139.5000 Du        
  38583 ****       138.2500 130.7500 139.7500 Du        
  38584 ****       138.2500 131.0000 138.7500 Du        
  38585 ****       138.2500 131.0000 139.0000 Du        
  38586 ****       138.2500 131.0000 139.2500 Du        
  38587 ****       138.2500 131.0000 139.5000 Du        
  38588 ****       138.2500 131.0000 139.7500 Du        
  38589 ****       138.2500 131.2500 139.0000 Du        
  38590 ****       138.2500 131.2500 139.2500 Du        
  38591 ****       138.2500 131.2500 139.5000 Du        
  38592 ****       138.2500 131.2500 139.7500 Du        
  38593 ****       138.2500 131.5000 139.0000 Du        
  38594 ****       138.2500 131.5000 139.2500 Du        
  38595 ****       138.2500 131.7500 139.2500 Du        
  38596 ****       138.2500 134.2500 139.7500 Du        
  38597 ****       138.2500 134.2500 140.0000 Du        
  38598 ****       138.2500 134.5000 140.0000 Du        
  38599 ****       138.2500 134.7500 140.0000 Du        
  38600 ****       138.2500 135.0000 140.0000 Du        
  38601 ****       138.2500 135.0000 150.7500 Du        
  38602 ****       138.2500 135.0000 151.0000 Du        
  38603 ****       138.2500 135.0000 151.2500 Du        
  38604 ****       138.2500 135.2500 140.0000 Du        
  38605 ****       138.2500 135.2500 150.5000 Du        
  38606 ****       138.2500 135.2500 150.7500 Du        
  38607 ****       138.2500 135.2500 151.0000 Du        
  38608 ****       138.2500 135.5000 150.2500 Du        
  38609 ****       138.2500 135.5000 150.5000 Du        
  38610 ****       138.2500 135.5000 150.7500 Du        
  38611 ****       138.2500 135.5000 151.0000 Du        
  38612 ****       138.2500 135.7500 150.2500 Du        
  38613 ****       138.2500 135.7500 150.5000 Du        
  38614 ****       138.2500 135.7500 150.7500 Du        
  38615 ****       138.2500 135.7500 151.0000 Du        
  38616 ****       138.2500 136.0000 149.7500 Du        
  38617 ****       138.2500 136.0000 150.0000 Du        
  38618 ****       138.2500 136.0000 150.2500 Du        
  38619 ****       138.2500 136.0000 150.5000 Du        
  38620 ****       138.2500 136.0000 150.7500 Du        
  38621 ****       138.2500 136.2500 149.5000 Du        
  38622 ****       138.2500 136.2500 149.7500 Du        
  38623 ****       138.2500 136.2500 150.0000 Du        
  38624 ****       138.2500 136.2500 150.2500 Du        
  38625 ****       138.2500 136.2500 150.5000 Du        
  38626 ****       138.2500 136.2500 150.7500 Du        
  38627 ****       138.2500 136.5000 149.5000 Du        
  38628 ****       138.2500 136.5000 149.7500 Du        
  38629 ****       138.2500 136.5000 150.0000 Du        
  38630 ****       138.2500 136.5000 150.2500 Du        
  38631 ****       138.2500 136.5000 150.5000 Du        
  38632 ****       138.2500 136.5000 150.7500 Du        
  38633 ****       138.2500 136.7500 149.2500 Du        
  38634 ****       138.2500 136.7500 149.5000 Du        
  38635 ****       138.2500 136.7500 149.7500 Du        
  38636 ****       138.2500 136.7500 150.0000 Du        
  38637 ****       138.2500 136.7500 150.2500 Du        
  38638 ****       138.2500 136.7500 150.5000 Du        
  38639 ****       138.2500 137.0000 149.0000 Du        
  38640 ****       138.2500 137.0000 149.2500 Du        
  38641 ****       138.2500 137.0000 149.5000 Du        
  38642 ****       138.2500 137.0000 149.7500 Du        
  38643 ****       138.2500 137.0000 150.0000 Du        
  38644 ****       138.2500 137.0000 150.2500 Du        
  38645 ****       138.2500 137.2500 149.0000 Du        
  38646 ****       138.2500 137.2500 149.2500 Du        
  38647 ****       138.2500 137.2500 149.5000 Du        
  38648 ****       138.2500 137.2500 149.7500 Du        
  38649 ****       138.2500 137.2500 150.0000 Du        
  38650 ****       138.2500 137.5000 148.7500 Du        
  38651 ****       138.2500 137.5000 149.0000 Du        
  38652 ****       138.2500 137.5000 149.2500 Du        
  38653 ****       138.2500 137.5000 149.5000 Du        
  38654 ****       138.2500 137.5000 149.7500 Du        
  38655 ****       138.2500 137.7500 148.7500 Du        
  38656 ****       138.2500 137.7500 149.0000 Du        
  38657 ****       138.2500 137.7500 149.2500 Du        
  38658 ****       138.2500 137.7500 149.5000 Du        
  38659 ****       138.2500 138.0000 148.5000 Du        
  38660 ****       138.2500 138.0000 148.7500 Du        
  38661 ****       138.2500 138.0000 149.0000 Du        
  38662 ****       138.2500 138.2500 148.5000 Du        
  38663 ****       138.2500 138.7500 147.7500 Du        
  38664 ****       138.2500 142.7500  92.0000 Du        
  38665 ****       138.2500 143.0000  91.7500 Du        
  38666 ****       138.2500 143.0000  92.0000 Du        
  38667 ****       138.2500 143.0000  92.2500 Du        
  38668 ****       138.2500 143.0000  92.5000 Du        
  38669 ****       138.2500 143.2500  91.5000 Du        
  38670 ****       138.2500 143.2500  91.7500 Du        
  38671 ****       138.2500 143.2500  92.0000 Du        
  38672 ****       138.2500 143.2500  92.2500 Du        
  38673 ****       138.2500 143.2500  92.5000 Du        
  38674 ****       138.2500 143.2500 130.5000 Du        
  38675 ****       138.2500 143.2500 130.7500 Du        
  38676 ****       138.2500 143.2500 131.0000 Du        
  38677 ****       138.2500 143.5000  92.0000 Du        
  38678 ****       138.2500 143.5000  92.2500 Du        
  38679 ****       138.2500 143.5000 130.5000 Du        
  38680 ****       138.2500 143.5000 130.7500 Du        
  38681 ****       138.2500 143.5000 131.0000 Du        
  38682 ****       138.2500 143.5000 131.2500 Du        
  38683 ****       138.2500 143.7500  92.0000 Du        
  38684 ****       138.2500 143.7500  92.2500 Du        
  38685 ****       138.2500 143.7500 130.5000 Du        
  38686 ****       138.2500 143.7500 130.7500 Du        
  38687 ****       138.2500 143.7500 131.0000 Du        
  38688 ****       138.2500 143.7500 131.2500 Du        
  38689 ****       138.2500 143.7500 131.5000 Du        
  38690 ****       138.2500 143.7500 131.7500 Du        
  38691 ****       138.2500 144.0000  91.7500 Du        
  38692 ****       138.2500 144.0000  92.0000 Du        
  38693 ****       138.2500 144.0000  92.2500 Du        
  38694 ****       138.2500 144.0000 130.5000 Du        
  38695 ****       138.2500 144.0000 130.7500 Du        
  38696 ****       138.2500 144.0000 131.0000 Du        
  38697 ****       138.2500 144.0000 131.2500 Du        
  38698 ****       138.2500 144.0000 131.5000 Du        
  38699 ****       138.2500 144.0000 131.7500 Du        
  38700 ****       138.2500 144.0000 132.0000 Du        
  38701 ****       138.2500 144.2500  91.7500 Du        
  38702 ****       138.2500 144.2500  92.0000 Du        
  38703 ****       138.2500 144.2500 130.5000 Du        
  38704 ****       138.2500 144.2500 130.7500 Du        
  38705 ****       138.2500 144.2500 131.0000 Du        
  38706 ****       138.2500 144.2500 131.2500 Du        
  38707 ****       138.2500 144.2500 131.5000 Du        
  38708 ****       138.2500 144.2500 131.7500 Du        
  38709 ****       138.2500 144.2500 132.0000 Du        
  38710 ****       138.2500 144.5000  92.0000 Du        
  38711 ****       138.2500 144.7500  91.7500 Du        
  38712 ****       138.2500 144.7500  92.0000 Du        
  38713 ****       138.2500 145.0000  91.7500 Du        
  38714 ****       138.2500 145.5000  91.5000 Du        
  38715 ****       138.2500 145.5000  91.7500 Du        
  38716 ****       138.2500 145.7500  91.2500 Du        
  38717 ****       138.2500 145.7500  91.5000 Du        
  38718 ****       138.2500 146.0000  91.0000 Du        
  38719 ****       138.2500 146.0000  91.2500 Du        
  38720 ****       138.2500 146.2500  91.0000 Du        
  38721 ****       138.2500 146.5000  91.0000 Du        
  38722 ****       138.2500 146.7500  90.7500 Du        
  38723 ****       138.2500 146.7500  91.0000 Du        
  38724 ****       138.2500 147.0000 123.2500 Du        
  38725 ****       138.2500 147.2500 123.2500 Du        
  38726 ****       138.2500 151.7500 106.7500 Du        
  38727 ****       138.2500 151.7500 107.0000 Du        
  38728 ****       138.2500 151.7500 107.2500 Du        
  38729 ****       138.2500 152.0000 106.7500 Du        
  38730 ****       138.2500 152.0000 107.0000 Du        
  38731 ****       138.2500 152.0000 107.2500 Du        
  38732 ****       138.2500 152.0000 107.5000 Du        
  38733 ****       138.2500 152.2500 106.5000 Du        
  38734 ****       138.2500 152.2500 106.7500 Du        
  38735 ****       138.2500 152.2500 107.0000 Du        
  38736 ****       138.2500 152.2500 107.2500 Du        
  38737 ****       138.2500 152.2500 107.5000 Du        
  38738 ****       138.2500 152.2500 107.7500 Du        
  38739 ****       138.2500 152.5000 106.5000 Du        
  38740 ****       138.2500 152.5000 106.7500 Du        
  38741 ****       138.2500 152.5000 107.0000 Du        
  38742 ****       138.2500 152.5000 107.2500 Du        
  38743 ****       138.2500 152.5000 107.5000 Du        
  38744 ****       138.2500 152.5000 107.7500 Du        
  38745 ****       138.2500 152.5000 108.0000 Du        
  38746 ****       138.2500 152.5000 108.2500 Du        
  38747 ****       138.2500 152.7500 106.2500 Du        
  38748 ****       138.2500 152.7500 106.5000 Du        
  38749 ****       138.2500 152.7500 106.7500 Du        
  38750 ****       138.2500 152.7500 107.0000 Du        
  38751 ****       138.2500 152.7500 107.2500 Du        
  38752 ****       138.2500 152.7500 107.5000 Du        
  38753 ****       138.2500 152.7500 107.7500 Du        
  38754 ****       138.2500 152.7500 108.0000 Du        
  38755 ****       138.2500 152.7500 108.2500 Du        
  38756 ****       138.2500 152.7500 108.5000 Du        
  38757 ****       138.2500 153.0000 106.2500 Du        
  38758 ****       138.2500 153.0000 106.5000 Du        
  38759 ****       138.2500 153.0000 106.7500 Du        
  38760 ****       138.2500 153.0000 107.0000 Du        
  38761 ****       138.2500 153.0000 107.2500 Du        
  38762 ****       138.2500 153.0000 107.5000 Du        
  38763 ****       138.2500 153.0000 107.7500 Du        
  38764 ****       138.2500 153.0000 108.0000 Du        
  38765 ****       138.2500 153.0000 108.2500 Du        
  38766 ****       138.2500 153.0000 108.5000 Du        
  38767 ****       138.2500 153.0000 108.7500 Du        
  38768 ****       138.2500 153.0000 109.0000 Du        
  38769 ****       138.2500 153.2500  97.2500 Du        
  38770 ****       138.2500 153.2500  97.5000 Du        
  38771 ****       138.2500 153.2500  97.7500 Du        
  38772 ****       138.2500 153.2500  98.0000 Du        
  38773 ****       138.2500 153.2500 106.0000 Du        
  38774 ****       138.2500 153.2500 106.2500 Du        
  38775 ****       138.2500 153.2500 106.5000 Du        
  38776 ****       138.2500 153.2500 106.7500 Du        
  38777 ****       138.2500 153.2500 107.0000 Du        
  38778 ****       138.2500 153.2500 107.2500 Du        
  38779 ****       138.2500 153.2500 107.5000 Du        
  38780 ****       138.2500 153.2500 107.7500 Du        
  38781 ****       138.2500 153.2500 108.0000 Du        
  38782 ****       138.2500 153.2500 108.2500 Du        
  38783 ****       138.2500 153.2500 108.5000 Du        
  38784 ****       138.2500 153.2500 108.7500 Du        
  38785 ****       138.2500 153.2500 109.0000 Du        
  38786 ****       138.2500 153.5000  97.0000 Du        
  38787 ****       138.2500 153.5000  97.2500 Du        
  38788 ****       138.2500 153.5000  97.5000 Du        
  38789 ****       138.2500 153.5000  97.7500 Du        
  38790 ****       138.2500 153.5000  98.0000 Du        
  38791 ****       138.2500 153.5000  98.2500 Du        
  38792 ****       138.2500 153.5000 106.0000 Du        
  38793 ****       138.2500 153.5000 106.2500 Du        
  38794 ****       138.2500 153.5000 106.5000 Du        
  38795 ****       138.2500 153.5000 106.7500 Du        
  38796 ****       138.2500 153.5000 107.0000 Du        
  38797 ****       138.2500 153.5000 107.2500 Du        
  38798 ****       138.2500 153.5000 107.5000 Du        
  38799 ****       138.2500 153.5000 107.7500 Du        
  38800 ****       138.2500 153.5000 108.0000 Du        
  38801 ****       138.2500 153.7500  96.7500 Du        
  38802 ****       138.2500 153.7500  97.0000 Du        
  38803 ****       138.2500 153.7500  97.2500 Du        
  38804 ****       138.2500 153.7500  97.5000 Du        
  38805 ****       138.2500 153.7500  97.7500 Du        
  38806 ****       138.2500 153.7500  98.0000 Du        
  38807 ****       138.2500 153.7500  98.2500 Du        
  38808 ****       138.2500 153.7500  98.5000 Du        
  38809 ****       138.2500 153.7500 106.0000 Du        
  38810 ****       138.2500 153.7500 106.2500 Du        
  38811 ****       138.2500 153.7500 106.5000 Du        
  38812 ****       138.2500 153.7500 106.7500 Du        
  38813 ****       138.2500 153.7500 107.0000 Du        
  38814 ****       138.2500 153.7500 107.2500 Du        
  38815 ****       138.2500 153.7500 107.5000 Du        
  38816 ****       138.2500 154.0000  96.7500 Du        
  38817 ****       138.2500 154.0000  97.0000 Du        
  38818 ****       138.2500 154.0000  97.2500 Du        
  38819 ****       138.2500 154.0000  97.5000 Du        
  38820 ****       138.2500 154.0000  97.7500 Du        
  38821 ****       138.2500 154.0000  98.0000 Du        
  38822 ****       138.2500 154.0000  98.2500 Du        
  38823 ****       138.2500 154.0000  98.5000 Du        
  38824 ****       138.2500 154.0000  98.7500 Du        
  38825 ****       138.2500 154.0000 105.7500 Du        
  38826 ****       138.2500 154.0000 106.0000 Du        
  38827 ****       138.2500 154.0000 106.2500 Du        
  38828 ****       138.2500 154.0000 106.5000 Du        
  38829 ****       138.2500 154.0000 106.7500 Du        
  38830 ****       138.2500 154.0000 107.0000 Du        
  38831 ****       138.2500 154.0000 107.2500 Du        
  38832 ****       138.2500 154.2500  97.0000 Du        
  38833 ****       138.2500 154.2500  97.2500 Du        
  38834 ****       138.2500 154.2500  97.5000 Du        
  38835 ****       138.2500 154.2500  97.7500 Du        
  38836 ****       138.2500 154.2500  98.0000 Du        
  38837 ****       138.2500 154.2500  98.2500 Du        
  38838 ****       138.2500 154.2500  98.5000 Du        
  38839 ****       138.2500 154.2500  98.7500 Du        
  38840 ****       138.2500 154.2500  99.0000 Du        
  38841 ****       138.2500 154.2500 105.7500 Du        
  38842 ****       138.2500 154.2500 106.0000 Du        
  38843 ****       138.2500 154.2500 106.2500 Du        
  38844 ****       138.2500 154.2500 106.5000 Du        
  38845 ****       138.2500 154.2500 106.7500 Du        
  38846 ****       138.2500 154.2500 107.0000 Du        
  38847 ****       138.2500 154.5000  97.7500 Du        
  38848 ****       138.2500 154.5000  98.0000 Du        
  38849 ****       138.2500 154.5000  98.2500 Du        
  38850 ****       138.2500 154.5000  98.5000 Du        
  38851 ****       138.2500 154.5000  98.7500 Du        
  38852 ****       138.2500 154.5000 105.5000 Du        
  38853 ****       138.2500 154.5000 105.7500 Du        
  38854 ****       138.2500 154.5000 106.0000 Du        
  38855 ****       138.2500 154.5000 106.2500 Du        
  38856 ****       138.2500 154.7500  98.0000 Du        
  38857 ****       138.2500 154.7500  98.2500 Du        
  38858 ****       138.2500 154.7500  98.5000 Du        
  38859 ****       138.2500 154.7500  98.7500 Du        
  38860 ****       138.2500 154.7500  99.0000 Du        
  38861 ****       138.2500 154.7500 105.2500 Du        
  38862 ****       138.2500 154.7500 105.5000 Du        
  38863 ****       138.2500 154.7500 105.7500 Du        
  38864 ****       138.2500 154.7500 106.0000 Du        
  38865 ****       138.2500 154.7500 106.2500 Du        
  38866 ****       138.2500 155.0000  98.5000 Du        
  38867 ****       138.2500 155.0000  98.7500 Du        
  38868 ****       138.2500 155.0000  99.0000 Du        
  38869 ****       138.2500 155.0000 105.0000 Du        
  38870 ****       138.2500 155.0000 105.2500 Du        
  38871 ****       138.2500 155.0000 105.5000 Du        
  38872 ****       138.2500 155.0000 105.7500 Du        
  38873 ****       138.2500 155.0000 106.0000 Du        
  38874 ****       138.2500 155.2500 105.0000 Du        
  38875 ****       138.2500 155.2500 105.2500 Du        
  38876 ****       138.2500 155.2500 105.5000 Du        
  38877 ****       138.2500 157.0000 144.5000 Du        
  38878 ****       138.2500 157.2500 144.5000 Du        
  38879 ****       138.2500 157.5000 144.5000 Du        
  38880 ****       138.2500 157.7500 144.5000 Du        
  38881 ****       138.2500 160.2500 155.5000 Du        
  38882 ****       138.2500 160.2500 155.7500 Du        
  38883 ****       138.2500 160.2500 156.0000 Du        
  38884 ****       138.2500 160.2500 156.2500 Du        
  38885 ****       138.2500 160.2500 156.5000 Du        
  38886 ****       138.2500 160.2500 156.7500 Du        
  38887 ****       138.2500 160.5000 155.0000 Du        
  38888 ****       138.2500 160.5000 155.2500 Du        
  38889 ****       138.2500 160.5000 155.5000 Du        
  38890 ****       138.2500 160.5000 155.7500 Du        
  38891 ****       138.2500 160.5000 156.0000 Du        
  38892 ****       138.2500 160.5000 156.2500 Du        
  38893 ****       138.2500 160.5000 156.5000 Du        
  38894 ****       138.2500 160.5000 156.7500 Du        
  38895 ****       138.2500 160.7500 155.0000 Du        
  38896 ****       138.2500 160.7500 155.2500 Du        
  38897 ****       138.2500 160.7500 155.5000 Du        
  38898 ****       138.2500 160.7500 155.7500 Du        
  38899 ****       138.2500 160.7500 156.0000 Du        
  38900 ****       138.2500 160.7500 156.2500 Du        
  38901 ****       138.2500 160.7500 156.5000 Du        
  38902 ****       138.2500 161.0000 155.2500 Du        
  38903 ****       138.2500 161.0000 155.5000 Du        
  38904 ****       138.2500 161.0000 155.7500 Du        
  38905 ****       138.2500 161.0000 156.0000 Du        
  38906 ****       138.2500 161.0000 156.2500 Du        
  38907 ****       138.5000 126.0000 102.0000 Du        
  38908 ****       138.5000 126.0000 102.2500 Du        
  38909 ****       138.5000 126.0000 102.5000 Du        
  38910 ****       138.5000 126.0000 102.7500 Du        
  38911 ****       138.5000 126.0000 103.0000 Du        
  38912 ****       138.5000 126.0000 148.7500 Du        
  38913 ****       138.5000 126.2500 101.7500 Du        
  38914 ****       138.5000 126.2500 102.0000 Du        
  38915 ****       138.5000 126.2500 102.2500 Du        
  38916 ****       138.5000 126.2500 102.5000 Du        
  38917 ****       138.5000 126.2500 102.7500 Du        
  38918 ****       138.5000 126.2500 103.0000 Du        
  38919 ****       138.5000 126.2500 103.2500 Du        
  38920 ****       138.5000 126.2500 148.7500 Du        
  38921 ****       138.5000 126.5000 101.2500 Du        
  38922 ****       138.5000 126.5000 101.5000 Du        
  38923 ****       138.5000 126.5000 101.7500 Du        
  38924 ****       138.5000 126.5000 102.0000 Du        
  38925 ****       138.5000 126.5000 102.2500 Du        
  38926 ****       138.5000 126.5000 102.5000 Du        
  38927 ****       138.5000 126.5000 102.7500 Du        
  38928 ****       138.5000 126.5000 103.0000 Du        
  38929 ****       138.5000 126.5000 103.2500 Du        
  38930 ****       138.5000 126.5000 103.5000 Du        
  38931 ****       138.5000 126.5000 103.7500 Du        
  38932 ****       138.5000 126.5000 148.5000 Du        
  38933 ****       138.5000 126.5000 148.7500 Du        
  38934 ****       138.5000 126.7500 101.5000 Du        
  38935 ****       138.5000 126.7500 101.7500 Du        
  38936 ****       138.5000 126.7500 102.0000 Du        
  38937 ****       138.5000 126.7500 102.2500 Du        
  38938 ****       138.5000 126.7500 102.5000 Du        
  38939 ****       138.5000 126.7500 102.7500 Du        
  38940 ****       138.5000 126.7500 103.0000 Du        
  38941 ****       138.5000 126.7500 103.2500 Du        
  38942 ****       138.5000 126.7500 103.5000 Du        
  38943 ****       138.5000 126.7500 103.7500 Du        
  38944 ****       138.5000 126.7500 104.0000 Du        
  38945 ****       138.5000 126.7500 148.5000 Du        
  38946 ****       138.5000 126.7500 148.7500 Du        
  38947 ****       138.5000 126.7500 149.0000 Du        
  38948 ****       138.5000 127.0000 101.7500 Du        
  38949 ****       138.5000 127.0000 102.0000 Du        
  38950 ****       138.5000 127.0000 102.2500 Du        
  38951 ****       138.5000 127.0000 102.5000 Du        
  38952 ****       138.5000 127.0000 102.7500 Du        
  38953 ****       138.5000 127.0000 103.0000 Du        
  38954 ****       138.5000 127.0000 103.2500 Du        
  38955 ****       138.5000 127.0000 103.5000 Du        
  38956 ****       138.5000 127.0000 103.7500 Du        
  38957 ****       138.5000 127.0000 104.0000 Du        
  38958 ****       138.5000 127.0000 148.5000 Du        
  38959 ****       138.5000 127.0000 148.7500 Du        
  38960 ****       138.5000 127.0000 149.0000 Du        
  38961 ****       138.5000 127.2500 102.0000 Du        
  38962 ****       138.5000 127.2500 102.2500 Du        
  38963 ****       138.5000 127.2500 102.5000 Du        
  38964 ****       138.5000 127.2500 102.7500 Du        
  38965 ****       138.5000 127.2500 103.0000 Du        
  38966 ****       138.5000 127.2500 103.2500 Du        
  38967 ****       138.5000 127.2500 103.5000 Du        
  38968 ****       138.5000 127.2500 103.7500 Du        
  38969 ****       138.5000 127.2500 104.0000 Du        
  38970 ****       138.5000 127.2500 148.2500 Du        
  38971 ****       138.5000 127.2500 148.5000 Du        
  38972 ****       138.5000 127.2500 148.7500 Du        
  38973 ****       138.5000 127.2500 149.0000 Du        
  38974 ****       138.5000 127.5000 102.5000 Du        
  38975 ****       138.5000 127.5000 102.7500 Du        
  38976 ****       138.5000 127.5000 148.2500 Du        
  38977 ****       138.5000 127.5000 148.5000 Du        
  38978 ****       138.5000 127.5000 148.7500 Du        
  38979 ****       138.5000 127.5000 149.0000 Du        
  38980 ****       138.5000 127.7500 148.2500 Du        
  38981 ****       138.5000 127.7500 148.5000 Du        
  38982 ****       138.5000 127.7500 148.7500 Du        
  38983 ****       138.5000 127.7500 149.0000 Du        
  38984 ****       138.5000 127.7500 149.2500 Du        
  38985 ****       138.5000 128.0000 141.7500 Du        
  38986 ****       138.5000 128.0000 142.0000 Du        
  38987 ****       138.5000 128.0000 148.2500 Du        
  38988 ****       138.5000 128.0000 148.5000 Du        
  38989 ****       138.5000 128.0000 148.7500 Du        
  38990 ****       138.5000 128.0000 149.0000 Du        
  38991 ****       138.5000 128.0000 149.2500 Du        
  38992 ****       138.5000 128.0000 149.5000 Du        
  38993 ****       138.5000 128.2500 141.5000 Du        
  38994 ****       138.5000 128.2500 141.7500 Du        
  38995 ****       138.5000 128.2500 142.0000 Du        
  38996 ****       138.5000 128.2500 142.2500 Du        
  38997 ****       138.5000 128.2500 148.2500 Du        
  38998 ****       138.5000 128.2500 148.5000 Du        
  38999 ****       138.5000 128.2500 148.7500 Du        
  39000 ****       138.5000 128.2500 149.0000 Du        
  39001 ****       138.5000 128.2500 149.2500 Du        
  39002 ****       138.5000 128.2500 149.5000 Du        
  39003 ****       138.5000 128.2500 149.7500 Du        
  39004 ****       138.5000 128.5000 141.5000 Du        
  39005 ****       138.5000 128.5000 141.7500 Du        
  39006 ****       138.5000 128.5000 142.0000 Du        
  39007 ****       138.5000 128.5000 142.2500 Du        
  39008 ****       138.5000 128.5000 148.5000 Du        
  39009 ****       138.5000 128.5000 148.7500 Du        
  39010 ****       138.5000 128.5000 149.0000 Du        
  39011 ****       138.5000 128.5000 149.2500 Du        
  39012 ****       138.5000 128.5000 149.5000 Du        
  39013 ****       138.5000 128.5000 149.7500 Du        
  39014 ****       138.5000 128.7500 141.5000 Du        
  39015 ****       138.5000 128.7500 141.7500 Du        
  39016 ****       138.5000 128.7500 142.0000 Du        
  39017 ****       138.5000 128.7500 142.2500 Du        
  39018 ****       138.5000 128.7500 148.7500 Du        
  39019 ****       138.5000 128.7500 149.0000 Du        
  39020 ****       138.5000 128.7500 149.2500 Du        
  39021 ****       138.5000 128.7500 149.5000 Du        
  39022 ****       138.5000 129.0000 149.2500 Du        
  39023 ****       138.5000 129.7500 138.0000 Du        
  39024 ****       138.5000 129.7500 138.2500 Du        
  39025 ****       138.5000 129.7500 138.5000 Du        
  39026 ****       138.5000 129.7500 138.7500 Du        
  39027 ****       138.5000 129.7500 139.0000 Du        
  39028 ****       138.5000 129.7500 139.2500 Du        
  39029 ****       138.5000 130.0000 138.0000 Du        
  39030 ****       138.5000 130.0000 138.2500 Du        
  39031 ****       138.5000 130.0000 138.5000 Du        
  39032 ****       138.5000 130.0000 138.7500 Du        
  39033 ****       138.5000 130.0000 139.0000 Du        
  39034 ****       138.5000 130.0000 139.2500 Du        
  39035 ****       138.5000 130.0000 139.5000 Du        
  39036 ****       138.5000 130.0000 139.7500 Du        
  39037 ****       138.5000 130.0000 140.0000 Du        
  39038 ****       138.5000 130.2500 138.2500 Du        
  39039 ****       138.5000 130.2500 138.5000 Du        
  39040 ****       138.5000 130.2500 138.7500 Du        
  39041 ****       138.5000 130.2500 139.0000 Du        
  39042 ****       138.5000 130.2500 139.2500 Du        
  39043 ****       138.5000 130.2500 139.5000 Du        
  39044 ****       138.5000 130.2500 139.7500 Du        
  39045 ****       138.5000 130.2500 140.0000 Du        
  39046 ****       138.5000 130.5000 138.2500 Du        
  39047 ****       138.5000 130.5000 138.5000 Du        
  39048 ****       138.5000 130.5000 138.7500 Du        
  39049 ****       138.5000 130.5000 139.0000 Du        
  39050 ****       138.5000 130.5000 139.2500 Du        
  39051 ****       138.5000 130.5000 139.5000 Du        
  39052 ****       138.5000 130.7500 138.5000 Du        
  39053 ****       138.5000 130.7500 138.7500 Du        
  39054 ****       138.5000 130.7500 139.0000 Du        
  39055 ****       138.5000 130.7500 139.2500 Du        
  39056 ****       138.5000 130.7500 139.5000 Du        
  39057 ****       138.5000 131.0000 138.5000 Du        
  39058 ****       138.5000 131.0000 138.7500 Du        
  39059 ****       138.5000 131.0000 139.0000 Du        
  39060 ****       138.5000 131.0000 139.2500 Du        
  39061 ****       138.5000 131.0000 139.5000 Du        
  39062 ****       138.5000 131.2500 138.7500 Du        
  39063 ****       138.5000 131.2500 139.0000 Du        
  39064 ****       138.5000 131.2500 139.2500 Du        
  39065 ****       138.5000 131.2500 139.5000 Du        
  39066 ****       138.5000 131.5000 139.0000 Du        
  39067 ****       138.5000 131.5000 139.2500 Du        
  39068 ****       138.5000 131.7500 139.2500 Du        
  39069 ****       138.5000 132.0000 139.2500 Du        
  39070 ****       138.5000 134.5000 139.7500 Du        
  39071 ****       138.5000 134.5000 140.0000 Du        
  39072 ****       138.5000 134.7500 139.7500 Du        
  39073 ****       138.5000 134.7500 140.0000 Du        
  39074 ****       138.5000 135.0000 139.5000 Du        
  39075 ****       138.5000 135.0000 139.7500 Du        
  39076 ****       138.5000 135.0000 140.0000 Du        
  39077 ****       138.5000 135.2500 139.2500 Du        
  39078 ****       138.5000 135.2500 139.5000 Du        
  39079 ****       138.5000 135.2500 139.7500 Du        
  39080 ****       138.5000 135.2500 140.0000 Du        
  39081 ****       138.5000 135.2500 140.2500 Du        
  39082 ****       138.5000 135.2500 150.5000 Du        
  39083 ****       138.5000 135.2500 150.7500 Du        
  39084 ****       138.5000 135.5000 139.5000 Du        
  39085 ****       138.5000 135.5000 139.7500 Du        
  39086 ****       138.5000 135.5000 140.0000 Du        
  39087 ****       138.5000 135.5000 140.2500 Du        
  39088 ****       138.5000 135.5000 150.2500 Du        
  39089 ****       138.5000 135.5000 150.5000 Du        
  39090 ****       138.5000 135.5000 150.7500 Du        
  39091 ****       138.5000 135.7500 139.5000 Du        
  39092 ****       138.5000 135.7500 139.7500 Du        
  39093 ****       138.5000 135.7500 140.0000 Du        
  39094 ****       138.5000 135.7500 150.0000 Du        
  39095 ****       138.5000 135.7500 150.2500 Du        
  39096 ****       138.5000 135.7500 150.5000 Du        
  39097 ****       138.5000 135.7500 150.7500 Du        
  39098 ****       138.5000 136.0000 139.7500 Du        
  39099 ****       138.5000 136.0000 140.0000 Du        
  39100 ****       138.5000 136.0000 149.7500 Du        
  39101 ****       138.5000 136.0000 150.0000 Du        
  39102 ****       138.5000 136.0000 150.2500 Du        
  39103 ****       138.5000 136.0000 150.5000 Du        
  39104 ****       138.5000 136.0000 150.7500 Du        
  39105 ****       138.5000 136.2500 149.5000 Du        
  39106 ****       138.5000 136.2500 149.7500 Du        
  39107 ****       138.5000 136.2500 150.0000 Du        
  39108 ****       138.5000 136.2500 150.2500 Du        
  39109 ****       138.5000 136.2500 150.5000 Du        
  39110 ****       138.5000 136.2500 150.7500 Du        
  39111 ****       138.5000 136.5000 149.2500 Du        
  39112 ****       138.5000 136.5000 149.5000 Du        
  39113 ****       138.5000 136.5000 149.7500 Du        
  39114 ****       138.5000 136.5000 150.0000 Du        
  39115 ****       138.5000 136.5000 150.2500 Du        
  39116 ****       138.5000 136.5000 150.5000 Du        
  39117 ****       138.5000 136.7500 149.0000 Du        
  39118 ****       138.5000 136.7500 149.2500 Du        
  39119 ****       138.5000 136.7500 149.5000 Du        
  39120 ****       138.5000 136.7500 149.7500 Du        
  39121 ****       138.5000 136.7500 150.0000 Du        
  39122 ****       138.5000 136.7500 150.2500 Du        
  39123 ****       138.5000 136.7500 150.5000 Du        
  39124 ****       138.5000 137.0000 149.0000 Du        
  39125 ****       138.5000 137.0000 149.2500 Du        
  39126 ****       138.5000 137.0000 149.5000 Du        
  39127 ****       138.5000 137.0000 149.7500 Du        
  39128 ****       138.5000 137.0000 150.0000 Du        
  39129 ****       138.5000 137.0000 150.2500 Du        
  39130 ****       138.5000 137.2500 148.7500 Du        
  39131 ****       138.5000 137.2500 149.0000 Du        
  39132 ****       138.5000 137.2500 149.2500 Du        
  39133 ****       138.5000 137.2500 149.5000 Du        
  39134 ****       138.5000 137.2500 149.7500 Du        
  39135 ****       138.5000 137.2500 150.0000 Du        
  39136 ****       138.5000 137.2500 150.2500 Du        
  39137 ****       138.5000 137.5000 148.5000 Du        
  39138 ****       138.5000 137.5000 148.7500 Du        
  39139 ****       138.5000 137.5000 149.0000 Du        
  39140 ****       138.5000 137.5000 149.2500 Du        
  39141 ****       138.5000 137.5000 149.5000 Du        
  39142 ****       138.5000 137.5000 149.7500 Du        
  39143 ****       138.5000 137.5000 150.0000 Du        
  39144 ****       138.5000 137.7500 148.5000 Du        
  39145 ****       138.5000 137.7500 148.7500 Du        
  39146 ****       138.5000 137.7500 149.0000 Du        
  39147 ****       138.5000 137.7500 149.2500 Du        
  39148 ****       138.5000 137.7500 149.5000 Du        
  39149 ****       138.5000 137.7500 149.7500 Du        
  39150 ****       138.5000 138.0000 148.2500 Du        
  39151 ****       138.5000 138.0000 148.5000 Du        
  39152 ****       138.5000 138.0000 148.7500 Du        
  39153 ****       138.5000 138.0000 149.0000 Du        
  39154 ****       138.5000 138.0000 149.2500 Du        
  39155 ****       138.5000 138.0000 149.5000 Du        
  39156 ****       138.5000 138.0000 149.7500 Du        
  39157 ****       138.5000 138.2500 148.2500 Du        
  39158 ****       138.5000 138.2500 148.5000 Du        
  39159 ****       138.5000 138.2500 148.7500 Du        
  39160 ****       138.5000 138.2500 149.0000 Du        
  39161 ****       138.5000 138.2500 149.2500 Du        
  39162 ****       138.5000 138.2500 149.5000 Du        
  39163 ****       138.5000 138.5000 147.7500 Du        
  39164 ****       138.5000 138.5000 148.0000 Du        
  39165 ****       138.5000 138.5000 148.2500 Du        
  39166 ****       138.5000 138.5000 148.5000 Du        
  39167 ****       138.5000 138.5000 148.7500 Du        
  39168 ****       138.5000 138.7500 147.2500 Du        
  39169 ****       138.5000 138.7500 147.5000 Du        
  39170 ****       138.5000 138.7500 147.7500 Du        
  39171 ****       138.5000 138.7500 148.0000 Du        
  39172 ****       138.5000 139.0000 147.5000 Du        
  39173 ****       138.5000 139.0000 147.7500 Du        
  39174 ****       138.5000 139.5000 146.7500 Du        
  39175 ****       138.5000 139.5000 147.0000 Du        
  39176 ****       138.5000 143.0000  91.5000 Du        
  39177 ****       138.5000 143.0000  91.7500 Du        
  39178 ****       138.5000 143.0000  92.0000 Du        
  39179 ****       138.5000 143.0000  92.2500 Du        
  39180 ****       138.5000 143.2500  91.5000 Du        
  39181 ****       138.5000 143.2500  91.7500 Du        
  39182 ****       138.5000 143.2500  92.0000 Du        
  39183 ****       138.5000 143.2500  92.2500 Du        
  39184 ****       138.5000 143.2500 131.0000 Du        
  39185 ****       138.5000 143.5000  91.5000 Du        
  39186 ****       138.5000 143.5000  91.7500 Du        
  39187 ****       138.5000 143.5000  92.0000 Du        
  39188 ****       138.5000 143.5000  92.2500 Du        
  39189 ****       138.5000 143.7500  91.5000 Du        
  39190 ****       138.5000 143.7500  91.7500 Du        
  39191 ****       138.5000 143.7500  92.0000 Du        
  39192 ****       138.5000 143.7500  92.2500 Du        
  39193 ****       138.5000 144.0000  91.5000 Du        
  39194 ****       138.5000 144.0000  91.7500 Du        
  39195 ****       138.5000 144.0000  92.0000 Du        
  39196 ****       138.5000 144.0000  92.2500 Du        
  39197 ****       138.5000 144.2500  91.5000 Du        
  39198 ****       138.5000 144.2500  91.7500 Du        
  39199 ****       138.5000 144.2500  92.0000 Du        
  39200 ****       138.5000 144.2500  92.2500 Du        
  39201 ****       138.5000 144.5000  91.5000 Du        
  39202 ****       138.5000 144.5000  91.7500 Du        
  39203 ****       138.5000 144.5000  92.0000 Du        
  39204 ****       138.5000 144.5000  92.2500 Du        
  39205 ****       138.5000 144.7500  91.2500 Du        
  39206 ****       138.5000 144.7500  91.5000 Du        
  39207 ****       138.5000 144.7500  91.7500 Du        
  39208 ****       138.5000 144.7500  92.0000 Du        
  39209 ****       138.5000 145.0000  91.2500 Du        
  39210 ****       138.5000 145.0000  91.5000 Du        
  39211 ****       138.5000 145.0000  91.7500 Du        
  39212 ****       138.5000 145.0000  92.0000 Du        
  39213 ****       138.5000 145.2500  91.2500 Du        
  39214 ****       138.5000 145.2500  91.5000 Du        
  39215 ****       138.5000 145.2500  91.7500 Du        
  39216 ****       138.5000 145.5000  91.0000 Du        
  39217 ****       138.5000 145.5000  91.2500 Du        
  39218 ****       138.5000 145.5000  91.5000 Du        
  39219 ****       138.5000 145.5000  91.7500 Du        
  39220 ****       138.5000 145.7500  91.0000 Du        
  39221 ****       138.5000 145.7500  91.2500 Du        
  39222 ****       138.5000 145.7500  91.5000 Du        
  39223 ****       138.5000 146.0000  90.7500 Du        
  39224 ****       138.5000 146.0000  91.0000 Du        
  39225 ****       138.5000 146.0000  91.2500 Du        
  39226 ****       138.5000 146.2500  90.7500 Du        
  39227 ****       138.5000 146.2500  91.0000 Du        
  39228 ****       138.5000 146.5000  90.7500 Du        
  39229 ****       138.5000 147.0000 123.0000 Du        
  39230 ****       138.5000 147.0000 123.2500 Du        
  39231 ****       138.5000 147.0000 123.7500 Du        
  39232 ****       138.5000 147.2500 123.0000 Du        
  39233 ****       138.5000 147.2500 123.2500 Du        
  39234 ****       138.5000 152.2500 106.7500 Du        
  39235 ****       138.5000 152.2500 107.0000 Du        
  39236 ****       138.5000 152.5000 106.7500 Du        
  39237 ****       138.5000 152.5000 107.0000 Du        
  39238 ****       138.5000 152.7500 106.5000 Du        
  39239 ****       138.5000 152.7500 106.7500 Du        
  39240 ****       138.5000 152.7500 107.0000 Du        
  39241 ****       138.5000 152.7500 107.2500 Du        
  39242 ****       138.5000 153.0000  96.7500 Du        
  39243 ****       138.5000 153.0000  97.0000 Du        
  39244 ****       138.5000 153.0000  97.2500 Du        
  39245 ****       138.5000 153.0000  97.5000 Du        
  39246 ****       138.5000 153.0000 106.2500 Du        
  39247 ****       138.5000 153.0000 106.5000 Du        
  39248 ****       138.5000 153.0000 106.7500 Du        
  39249 ****       138.5000 153.0000 107.0000 Du        
  39250 ****       138.5000 153.0000 107.2500 Du        
  39251 ****       138.5000 153.2500  96.5000 Du        
  39252 ****       138.5000 153.2500  96.7500 Du        
  39253 ****       138.5000 153.2500  97.0000 Du        
  39254 ****       138.5000 153.2500  97.2500 Du        
  39255 ****       138.5000 153.2500  97.5000 Du        
  39256 ****       138.5000 153.2500  97.7500 Du        
  39257 ****       138.5000 153.2500  98.0000 Du        
  39258 ****       138.5000 153.2500 106.2500 Du        
  39259 ****       138.5000 153.2500 106.5000 Du        
  39260 ****       138.5000 153.2500 106.7500 Du        
  39261 ****       138.5000 153.2500 107.0000 Du        
  39262 ****       138.5000 153.2500 107.2500 Du        
  39263 ****       138.5000 153.5000  96.5000 Du        
  39264 ****       138.5000 153.5000  96.7500 Du        
  39265 ****       138.5000 153.5000  97.0000 Du        
  39266 ****       138.5000 153.5000  97.2500 Du        
  39267 ****       138.5000 153.5000  97.5000 Du        
  39268 ****       138.5000 153.5000  97.7500 Du        
  39269 ****       138.5000 153.5000  98.0000 Du        
  39270 ****       138.5000 153.5000  98.2500 Du        
  39271 ****       138.5000 153.5000 106.2500 Du        
  39272 ****       138.5000 153.5000 106.5000 Du        
  39273 ****       138.5000 153.5000 106.7500 Du        
  39274 ****       138.5000 153.5000 107.0000 Du        
  39275 ****       138.5000 153.7500  96.5000 Du        
  39276 ****       138.5000 153.7500  96.7500 Du        
  39277 ****       138.5000 153.7500  97.0000 Du        
  39278 ****       138.5000 153.7500  97.2500 Du        
  39279 ****       138.5000 153.7500  97.5000 Du        
  39280 ****       138.5000 153.7500  97.7500 Du        
  39281 ****       138.5000 153.7500  98.0000 Du        
  39282 ****       138.5000 153.7500  98.2500 Du        
  39283 ****       138.5000 153.7500  98.5000 Du        
  39284 ****       138.5000 153.7500 106.0000 Du        
  39285 ****       138.5000 153.7500 106.2500 Du        
  39286 ****       138.5000 153.7500 106.5000 Du        
  39287 ****       138.5000 153.7500 106.7500 Du        
  39288 ****       138.5000 153.7500 107.0000 Du        
  39289 ****       138.5000 154.0000  96.7500 Du        
  39290 ****       138.5000 154.0000  97.0000 Du        
  39291 ****       138.5000 154.0000  97.2500 Du        
  39292 ****       138.5000 154.0000  97.5000 Du        
  39293 ****       138.5000 154.0000  97.7500 Du        
  39294 ****       138.5000 154.0000  98.0000 Du        
  39295 ****       138.5000 154.0000  98.2500 Du        
  39296 ****       138.5000 154.0000  98.5000 Du        
  39297 ****       138.5000 154.0000  98.7500 Du        
  39298 ****       138.5000 154.0000 106.0000 Du        
  39299 ****       138.5000 154.0000 106.2500 Du        
  39300 ****       138.5000 154.0000 106.5000 Du        
  39301 ****       138.5000 154.0000 106.7500 Du        
  39302 ****       138.5000 154.0000 107.0000 Du        
  39303 ****       138.5000 154.2500  97.2500 Du        
  39304 ****       138.5000 154.2500  97.5000 Du        
  39305 ****       138.5000 154.2500  97.7500 Du        
  39306 ****       138.5000 154.2500  98.0000 Du        
  39307 ****       138.5000 154.2500  98.2500 Du        
  39308 ****       138.5000 154.2500  98.5000 Du        
  39309 ****       138.5000 154.2500  98.7500 Du        
  39310 ****       138.5000 154.2500 105.7500 Du        
  39311 ****       138.5000 154.2500 106.0000 Du        
  39312 ****       138.5000 154.2500 106.2500 Du        
  39313 ****       138.5000 154.2500 106.5000 Du        
  39314 ****       138.5000 154.5000  98.0000 Du        
  39315 ****       138.5000 154.5000  98.2500 Du        
  39316 ****       138.5000 154.5000  98.5000 Du        
  39317 ****       138.5000 154.5000  98.7500 Du        
  39318 ****       138.5000 154.5000  99.0000 Du        
  39319 ****       138.5000 154.5000 105.7500 Du        
  39320 ****       138.5000 154.5000 106.0000 Du        
  39321 ****       138.5000 154.7500  98.0000 Du        
  39322 ****       138.5000 154.7500  98.2500 Du        
  39323 ****       138.5000 154.7500  98.5000 Du        
  39324 ****       138.5000 154.7500  98.7500 Du        
  39325 ****       138.5000 154.7500  99.0000 Du        
  39326 ****       138.5000 154.7500 105.5000 Du        
  39327 ****       138.5000 154.7500 105.7500 Du        
  39328 ****       138.5000 154.7500 106.0000 Du        
  39329 ****       138.5000 155.0000  98.5000 Du        
  39330 ****       138.5000 155.0000  98.7500 Du        
  39331 ****       138.5000 155.0000  99.0000 Du        
  39332 ****       138.5000 155.0000  99.2500 Du        
  39333 ****       138.5000 155.0000 105.2500 Du        
  39334 ****       138.5000 155.0000 105.5000 Du        
  39335 ****       138.5000 155.0000 105.7500 Du        
  39336 ****       138.5000 155.2500  99.0000 Du        
  39337 ****       138.5000 160.2500 156.0000 Du        
  39338 ****       138.5000 160.2500 156.2500 Du        
  39339 ****       138.5000 160.2500 156.5000 Du        
  39340 ****       138.5000 160.5000 155.5000 Du        
  39341 ****       138.5000 160.5000 155.7500 Du        
  39342 ****       138.5000 160.5000 156.0000 Du        
  39343 ****       138.5000 160.5000 156.2500 Du        
  39344 ****       138.5000 160.5000 156.5000 Du        
  39345 ****       138.5000 160.7500 155.5000 Du        
  39346 ****       138.5000 160.7500 155.7500 Du        
  39347 ****       138.5000 160.7500 156.0000 Du        
  39348 ****       138.5000 160.7500 156.2500 Du        
  39349 ****       138.5000 160.7500 156.5000 Du        
  39350 ****       138.5000 161.0000 155.5000 Du        
  39351 ****       138.5000 161.0000 155.7500 Du        
  39352 ****       138.5000 161.0000 156.0000 Du        
  39353 ****       138.7500 125.7500 148.7500 Du        
  39354 ****       138.7500 126.0000 148.5000 Du        
  39355 ****       138.7500 126.0000 148.7500 Du        
  39356 ****       138.7500 126.0000 149.0000 Du        
  39357 ****       138.7500 126.2500 101.7500 Du        
  39358 ****       138.7500 126.2500 102.0000 Du        
  39359 ****       138.7500 126.2500 102.2500 Du        
  39360 ****       138.7500 126.2500 102.5000 Du        
  39361 ****       138.7500 126.2500 102.7500 Du        
  39362 ****       138.7500 126.2500 148.5000 Du        
  39363 ****       138.7500 126.2500 148.7500 Du        
  39364 ****       138.7500 126.2500 149.0000 Du        
  39365 ****       138.7500 126.5000 101.5000 Du        
  39366 ****       138.7500 126.5000 101.7500 Du        
  39367 ****       138.7500 126.5000 102.0000 Du        
  39368 ****       138.7500 126.5000 102.2500 Du        
  39369 ****       138.7500 126.5000 102.5000 Du        
  39370 ****       138.7500 126.5000 102.7500 Du        
  39371 ****       138.7500 126.5000 103.0000 Du        
  39372 ****       138.7500 126.5000 103.2500 Du        
  39373 ****       138.7500 126.5000 148.2500 Du        
  39374 ****       138.7500 126.5000 148.5000 Du        
  39375 ****       138.7500 126.5000 148.7500 Du        
  39376 ****       138.7500 126.5000 149.0000 Du        
  39377 ****       138.7500 126.7500 101.5000 Du        
  39378 ****       138.7500 126.7500 101.7500 Du        
  39379 ****       138.7500 126.7500 102.0000 Du        
  39380 ****       138.7500 126.7500 102.2500 Du        
  39381 ****       138.7500 126.7500 102.5000 Du        
  39382 ****       138.7500 126.7500 102.7500 Du        
  39383 ****       138.7500 126.7500 103.0000 Du        
  39384 ****       138.7500 126.7500 103.2500 Du        
  39385 ****       138.7500 126.7500 103.5000 Du        
  39386 ****       138.7500 126.7500 148.2500 Du        
  39387 ****       138.7500 126.7500 148.5000 Du        
  39388 ****       138.7500 126.7500 148.7500 Du        
  39389 ****       138.7500 126.7500 149.0000 Du        
  39390 ****       138.7500 127.0000 101.7500 Du        
  39391 ****       138.7500 127.0000 102.0000 Du        
  39392 ****       138.7500 127.0000 102.2500 Du        
  39393 ****       138.7500 127.0000 102.5000 Du        
  39394 ****       138.7500 127.0000 102.7500 Du        
  39395 ****       138.7500 127.0000 103.0000 Du        
  39396 ****       138.7500 127.0000 103.2500 Du        
  39397 ****       138.7500 127.0000 103.5000 Du        
  39398 ****       138.7500 127.0000 148.2500 Du        
  39399 ****       138.7500 127.0000 148.5000 Du        
  39400 ****       138.7500 127.0000 148.7500 Du        
  39401 ****       138.7500 127.0000 149.0000 Du        
  39402 ****       138.7500 127.2500 102.2500 Du        
  39403 ****       138.7500 127.2500 102.5000 Du        
  39404 ****       138.7500 127.2500 102.7500 Du        
  39405 ****       138.7500 127.2500 103.0000 Du        
  39406 ****       138.7500 127.2500 148.0000 Du        
  39407 ****       138.7500 127.2500 148.2500 Du        
  39408 ****       138.7500 127.2500 148.5000 Du        
  39409 ****       138.7500 127.2500 148.7500 Du        
  39410 ****       138.7500 127.2500 149.0000 Du        
  39411 ****       138.7500 127.2500 149.2500 Du        
  39412 ****       138.7500 127.5000 148.2500 Du        
  39413 ****       138.7500 127.5000 148.5000 Du        
  39414 ****       138.7500 127.5000 148.7500 Du        
  39415 ****       138.7500 127.5000 149.0000 Du        
  39416 ****       138.7500 127.5000 149.2500 Du        
  39417 ****       138.7500 127.7500 141.7500 Du        
  39418 ****       138.7500 127.7500 142.0000 Du        
  39419 ****       138.7500 127.7500 148.2500 Du        
  39420 ****       138.7500 127.7500 148.5000 Du        
  39421 ****       138.7500 127.7500 148.7500 Du        
  39422 ****       138.7500 127.7500 149.0000 Du        
  39423 ****       138.7500 127.7500 149.2500 Du        
  39424 ****       138.7500 127.7500 149.5000 Du        
  39425 ****       138.7500 128.0000 141.5000 Du        
  39426 ****       138.7500 128.0000 141.7500 Du        
  39427 ****       138.7500 128.0000 142.0000 Du        
  39428 ****       138.7500 128.0000 142.2500 Du        
  39429 ****       138.7500 128.0000 148.0000 Du        
  39430 ****       138.7500 128.0000 148.2500 Du        
  39431 ****       138.7500 128.0000 148.5000 Du        
  39432 ****       138.7500 128.0000 148.7500 Du        
  39433 ****       138.7500 128.0000 149.0000 Du        
  39434 ****       138.7500 128.0000 149.2500 Du        
  39435 ****       138.7500 128.0000 149.5000 Du        
  39436 ****       138.7500 128.0000 149.7500 Du        
  39437 ****       138.7500 128.2500 141.5000 Du        
  39438 ****       138.7500 128.2500 141.7500 Du        
  39439 ****       138.7500 128.2500 142.0000 Du        
  39440 ****       138.7500 128.2500 142.2500 Du        
  39441 ****       138.7500 128.2500 142.5000 Du        
  39442 ****       138.7500 128.2500 148.2500 Du        
  39443 ****       138.7500 128.2500 148.5000 Du        
  39444 ****       138.7500 128.2500 148.7500 Du        
  39445 ****       138.7500 128.2500 149.0000 Du        
  39446 ****       138.7500 128.2500 149.2500 Du        
  39447 ****       138.7500 128.2500 149.5000 Du        
  39448 ****       138.7500 128.2500 149.7500 Du        
  39449 ****       138.7500 128.5000 141.5000 Du        
  39450 ****       138.7500 128.5000 141.7500 Du        
  39451 ****       138.7500 128.5000 142.0000 Du        
  39452 ****       138.7500 128.5000 142.2500 Du        
  39453 ****       138.7500 128.5000 148.5000 Du        
  39454 ****       138.7500 128.5000 148.7500 Du        
  39455 ****       138.7500 128.5000 149.0000 Du        
  39456 ****       138.7500 128.5000 149.2500 Du        
  39457 ****       138.7500 128.5000 149.5000 Du        
  39458 ****       138.7500 128.5000 149.7500 Du        
  39459 ****       138.7500 128.7500 141.5000 Du        
  39460 ****       138.7500 128.7500 141.7500 Du        
  39461 ****       138.7500 128.7500 142.0000 Du        
  39462 ****       138.7500 128.7500 142.2500 Du        
  39463 ****       138.7500 128.7500 148.5000 Du        
  39464 ****       138.7500 128.7500 148.7500 Du        
  39465 ****       138.7500 128.7500 149.0000 Du        
  39466 ****       138.7500 128.7500 149.2500 Du        
  39467 ****       138.7500 128.7500 149.5000 Du        
  39468 ****       138.7500 129.0000 148.7500 Du        
  39469 ****       138.7500 129.0000 149.0000 Du        
  39470 ****       138.7500 129.0000 149.2500 Du        
  39471 ****       138.7500 129.7500 138.0000 Du        
  39472 ****       138.7500 129.7500 138.2500 Du        
  39473 ****       138.7500 129.7500 138.5000 Du        
  39474 ****       138.7500 129.7500 138.7500 Du        
  39475 ****       138.7500 129.7500 139.0000 Du        
  39476 ****       138.7500 129.7500 139.2500 Du        
  39477 ****       138.7500 130.0000 138.2500 Du        
  39478 ****       138.7500 130.0000 138.5000 Du        
  39479 ****       138.7500 130.0000 138.7500 Du        
  39480 ****       138.7500 130.0000 139.0000 Du        
  39481 ****       138.7500 130.0000 139.2500 Du        
  39482 ****       138.7500 130.0000 139.5000 Du        
  39483 ****       138.7500 130.0000 139.7500 Du        
  39484 ****       138.7500 130.0000 140.0000 Du        
  39485 ****       138.7500 130.2500 138.2500 Du        
  39486 ****       138.7500 130.2500 138.5000 Du        
  39487 ****       138.7500 130.2500 138.7500 Du        
  39488 ****       138.7500 130.2500 139.0000 Du        
  39489 ****       138.7500 130.2500 139.2500 Du        
  39490 ****       138.7500 130.2500 139.5000 Du        
  39491 ****       138.7500 130.2500 139.7500 Du        
  39492 ****       138.7500 130.2500 140.0000 Du        
  39493 ****       138.7500 130.5000 138.2500 Du        
  39494 ****       138.7500 130.5000 138.5000 Du        
  39495 ****       138.7500 130.5000 138.7500 Du        
  39496 ****       138.7500 130.5000 139.0000 Du        
  39497 ****       138.7500 130.5000 139.2500 Du        
  39498 ****       138.7500 130.5000 139.5000 Du        
  39499 ****       138.7500 130.7500 138.5000 Du        
  39500 ****       138.7500 130.7500 138.7500 Du        
  39501 ****       138.7500 130.7500 139.0000 Du        
  39502 ****       138.7500 130.7500 139.2500 Du        
  39503 ****       138.7500 130.7500 139.5000 Du        
  39504 ****       138.7500 130.7500 139.7500 Du        
  39505 ****       138.7500 131.0000 138.5000 Du        
  39506 ****       138.7500 131.0000 138.7500 Du        
  39507 ****       138.7500 131.0000 139.0000 Du        
  39508 ****       138.7500 131.0000 139.2500 Du        
  39509 ****       138.7500 131.0000 139.5000 Du        
  39510 ****       138.7500 131.0000 139.7500 Du        
  39511 ****       138.7500 131.2500 138.7500 Du        
  39512 ****       138.7500 131.2500 139.0000 Du        
  39513 ****       138.7500 131.2500 139.2500 Du        
  39514 ****       138.7500 131.2500 139.5000 Du        
  39515 ****       138.7500 131.5000 138.7500 Du        
  39516 ****       138.7500 131.5000 139.0000 Du        
  39517 ****       138.7500 131.5000 139.2500 Du        
  39518 ****       138.7500 131.7500 139.0000 Du        
  39519 ****       138.7500 131.7500 139.2500 Du        
  39520 ****       138.7500 132.0000 139.0000 Du        
  39521 ****       138.7500 132.0000 139.2500 Du        
  39522 ****       138.7500 132.2500 139.2500 Du        
  39523 ****       138.7500 134.2500 139.7500 Du        
  39524 ****       138.7500 134.5000 139.2500 Du        
  39525 ****       138.7500 134.5000 139.5000 Du        
  39526 ****       138.7500 134.5000 139.7500 Du        
  39527 ****       138.7500 134.7500 139.2500 Du        
  39528 ****       138.7500 134.7500 139.5000 Du        
  39529 ****       138.7500 134.7500 139.7500 Du        
  39530 ****       138.7500 134.7500 140.0000 Du        
  39531 ****       138.7500 135.0000 139.2500 Du        
  39532 ****       138.7500 135.0000 139.5000 Du        
  39533 ****       138.7500 135.0000 139.7500 Du        
  39534 ****       138.7500 135.0000 140.0000 Du        
  39535 ****       138.7500 135.0000 150.5000 Du        
  39536 ****       138.7500 135.0000 150.7500 Du        
  39537 ****       138.7500 135.2500 139.0000 Du        
  39538 ****       138.7500 135.2500 139.2500 Du        
  39539 ****       138.7500 135.2500 139.5000 Du        
  39540 ****       138.7500 135.2500 139.7500 Du        
  39541 ****       138.7500 135.2500 140.0000 Du        
  39542 ****       138.7500 135.2500 140.2500 Du        
  39543 ****       138.7500 135.2500 150.5000 Du        
  39544 ****       138.7500 135.2500 150.7500 Du        
  39545 ****       138.7500 135.5000 139.2500 Du        
  39546 ****       138.7500 135.5000 139.5000 Du        
  39547 ****       138.7500 135.5000 139.7500 Du        
  39548 ****       138.7500 135.5000 140.0000 Du        
  39549 ****       138.7500 135.5000 140.2500 Du        
  39550 ****       138.7500 135.5000 150.2500 Du        
  39551 ****       138.7500 135.5000 150.5000 Du        
  39552 ****       138.7500 135.5000 150.7500 Du        
  39553 ****       138.7500 135.7500 139.2500 Du        
  39554 ****       138.7500 135.7500 139.5000 Du        
  39555 ****       138.7500 135.7500 139.7500 Du        
  39556 ****       138.7500 135.7500 140.0000 Du        
  39557 ****       138.7500 135.7500 140.2500 Du        
  39558 ****       138.7500 135.7500 149.7500 Du        
  39559 ****       138.7500 135.7500 150.0000 Du        
  39560 ****       138.7500 135.7500 150.2500 Du        
  39561 ****       138.7500 135.7500 150.5000 Du        
  39562 ****       138.7500 135.7500 150.7500 Du        
  39563 ****       138.7500 136.0000 139.5000 Du        
  39564 ****       138.7500 136.0000 139.7500 Du        
  39565 ****       138.7500 136.0000 140.0000 Du        
  39566 ****       138.7500 136.0000 140.2500 Du        
  39567 ****       138.7500 136.0000 149.7500 Du        
  39568 ****       138.7500 136.0000 150.0000 Du        
  39569 ****       138.7500 136.0000 150.2500 Du        
  39570 ****       138.7500 136.0000 150.5000 Du        
  39571 ****       138.7500 136.0000 150.7500 Du        
  39572 ****       138.7500 136.2500 139.7500 Du        
  39573 ****       138.7500 136.2500 140.0000 Du        
  39574 ****       138.7500 136.2500 149.5000 Du        
  39575 ****       138.7500 136.2500 149.7500 Du        
  39576 ****       138.7500 136.2500 150.0000 Du        
  39577 ****       138.7500 136.2500 150.2500 Du        
  39578 ****       138.7500 136.2500 150.5000 Du        
  39579 ****       138.7500 136.5000 149.2500 Du        
  39580 ****       138.7500 136.5000 149.5000 Du        
  39581 ****       138.7500 136.5000 149.7500 Du        
  39582 ****       138.7500 136.5000 150.0000 Du        
  39583 ****       138.7500 136.5000 150.2500 Du        
  39584 ****       138.7500 136.5000 150.5000 Du        
  39585 ****       138.7500 136.7500 149.0000 Du        
  39586 ****       138.7500 136.7500 149.2500 Du        
  39587 ****       138.7500 136.7500 149.5000 Du        
  39588 ****       138.7500 136.7500 149.7500 Du        
  39589 ****       138.7500 136.7500 150.0000 Du        
  39590 ****       138.7500 136.7500 150.2500 Du        
  39591 ****       138.7500 136.7500 150.5000 Du        
  39592 ****       138.7500 137.0000 148.7500 Du        
  39593 ****       138.7500 137.0000 149.0000 Du        
  39594 ****       138.7500 137.0000 149.2500 Du        
  39595 ****       138.7500 137.0000 149.5000 Du        
  39596 ****       138.7500 137.0000 149.7500 Du        
  39597 ****       138.7500 137.0000 150.0000 Du        
  39598 ****       138.7500 137.0000 150.2500 Du        
  39599 ****       138.7500 137.0000 150.5000 Du        
  39600 ****       138.7500 137.2500 148.7500 Du        
  39601 ****       138.7500 137.2500 149.0000 Du        
  39602 ****       138.7500 137.2500 149.2500 Du        
  39603 ****       138.7500 137.2500 149.5000 Du        
  39604 ****       138.7500 137.2500 149.7500 Du        
  39605 ****       138.7500 137.2500 150.0000 Du        
  39606 ****       138.7500 137.2500 150.2500 Du        
  39607 ****       138.7500 137.5000 148.5000 Du        
  39608 ****       138.7500 137.5000 148.7500 Du        
  39609 ****       138.7500 137.5000 149.0000 Du        
  39610 ****       138.7500 137.5000 149.2500 Du        
  39611 ****       138.7500 137.5000 149.5000 Du        
  39612 ****       138.7500 137.5000 149.7500 Du        
  39613 ****       138.7500 137.5000 150.0000 Du        
  39614 ****       138.7500 137.5000 150.2500 Du        
  39615 ****       138.7500 137.7500 148.0000 Du        
  39616 ****       138.7500 137.7500 148.2500 Du        
  39617 ****       138.7500 137.7500 148.5000 Du        
  39618 ****       138.7500 137.7500 148.7500 Du        
  39619 ****       138.7500 137.7500 149.0000 Du        
  39620 ****       138.7500 137.7500 149.2500 Du        
  39621 ****       138.7500 137.7500 149.5000 Du        
  39622 ****       138.7500 137.7500 149.7500 Du        
  39623 ****       138.7500 137.7500 150.0000 Du        
  39624 ****       138.7500 138.0000 148.0000 Du        
  39625 ****       138.7500 138.0000 148.2500 Du        
  39626 ****       138.7500 138.0000 148.5000 Du        
  39627 ****       138.7500 138.0000 148.7500 Du        
  39628 ****       138.7500 138.0000 149.0000 Du        
  39629 ****       138.7500 138.0000 149.2500 Du        
  39630 ****       138.7500 138.0000 149.5000 Du        
  39631 ****       138.7500 138.0000 149.7500 Du        
  39632 ****       138.7500 138.0000 150.0000 Du        
  39633 ****       138.7500 138.2500 147.7500 Du        
  39634 ****       138.7500 138.2500 148.0000 Du        
  39635 ****       138.7500 138.2500 148.2500 Du        
  39636 ****       138.7500 138.2500 148.5000 Du        
  39637 ****       138.7500 138.2500 148.7500 Du        
  39638 ****       138.7500 138.2500 149.0000 Du        
  39639 ****       138.7500 138.2500 149.2500 Du        
  39640 ****       138.7500 138.2500 149.5000 Du        
  39641 ****       138.7500 138.2500 149.7500 Du        
  39642 ****       138.7500 138.5000 147.5000 Du        
  39643 ****       138.7500 138.5000 147.7500 Du        
  39644 ****       138.7500 138.5000 148.0000 Du        
  39645 ****       138.7500 138.5000 148.2500 Du        
  39646 ****       138.7500 138.5000 148.5000 Du        
  39647 ****       138.7500 138.5000 148.7500 Du        
  39648 ****       138.7500 138.5000 149.0000 Du        
  39649 ****       138.7500 138.5000 149.2500 Du        
  39650 ****       138.7500 138.5000 149.5000 Du        
  39651 ****       138.7500 138.7500 147.2500 Du        
  39652 ****       138.7500 138.7500 147.5000 Du        
  39653 ****       138.7500 138.7500 147.7500 Du        
  39654 ****       138.7500 138.7500 148.0000 Du        
  39655 ****       138.7500 138.7500 148.2500 Du        
  39656 ****       138.7500 138.7500 148.5000 Du        
  39657 ****       138.7500 139.0000 147.2500 Du        
  39658 ****       138.7500 139.0000 147.5000 Du        
  39659 ****       138.7500 139.0000 147.7500 Du        
  39660 ****       138.7500 139.2500 147.2500 Du        
  39661 ****       138.7500 139.5000 146.7500 Du        
  39662 ****       138.7500 139.5000 147.0000 Du        
  39663 ****       138.7500 139.7500 146.5000 Du        
  39664 ****       138.7500 143.0000  90.7500 Du        
  39665 ****       138.7500 143.0000  91.0000 Du        
  39666 ****       138.7500 143.0000  91.5000 Du        
  39667 ****       138.7500 143.0000  91.7500 Du        
  39668 ****       138.7500 143.2500  91.5000 Du        
  39669 ****       138.7500 143.2500  91.7500 Du        
  39670 ****       138.7500 143.2500  92.0000 Du        
  39671 ****       138.7500 143.5000  91.0000 Du        
  39672 ****       138.7500 143.5000  91.2500 Du        
  39673 ****       138.7500 143.5000  91.5000 Du        
  39674 ****       138.7500 143.5000  91.7500 Du        
  39675 ****       138.7500 143.5000  92.0000 Du        
  39676 ****       138.7500 143.5000  92.2500 Du        
  39677 ****       138.7500 143.7500  90.7500 Du        
  39678 ****       138.7500 143.7500  91.0000 Du        
  39679 ****       138.7500 143.7500  91.2500 Du        
  39680 ****       138.7500 143.7500  91.5000 Du        
  39681 ****       138.7500 143.7500  91.7500 Du        
  39682 ****       138.7500 143.7500  92.0000 Du        
  39683 ****       138.7500 143.7500  92.2500 Du        
  39684 ****       138.7500 144.0000  91.0000 Du        
  39685 ****       138.7500 144.0000  91.2500 Du        
  39686 ****       138.7500 144.0000  91.5000 Du        
  39687 ****       138.7500 144.0000  91.7500 Du        
  39688 ****       138.7500 144.0000  92.0000 Du        
  39689 ****       138.7500 144.0000  92.2500 Du        
  39690 ****       138.7500 144.2500  91.0000 Du        
  39691 ****       138.7500 144.2500  91.2500 Du        
  39692 ****       138.7500 144.2500  91.5000 Du        
  39693 ****       138.7500 144.2500  91.7500 Du        
  39694 ****       138.7500 144.2500  92.0000 Du        
  39695 ****       138.7500 144.2500  92.2500 Du        
  39696 ****       138.7500 144.5000  91.2500 Du        
  39697 ****       138.7500 144.5000  91.5000 Du        
  39698 ****       138.7500 144.5000  91.7500 Du        
  39699 ****       138.7500 144.5000  92.0000 Du        
  39700 ****       138.7500 144.7500  91.0000 Du        
  39701 ****       138.7500 144.7500  91.2500 Du        
  39702 ****       138.7500 144.7500  91.5000 Du        
  39703 ****       138.7500 144.7500  91.7500 Du        
  39704 ****       138.7500 144.7500  92.0000 Du        
  39705 ****       138.7500 145.0000  91.0000 Du        
  39706 ****       138.7500 145.0000  91.2500 Du        
  39707 ****       138.7500 145.0000  91.5000 Du        
  39708 ****       138.7500 145.0000  91.7500 Du        
  39709 ****       138.7500 145.0000  92.0000 Du        
  39710 ****       138.7500 145.2500  91.0000 Du        
  39711 ****       138.7500 145.2500  91.2500 Du        
  39712 ****       138.7500 145.2500  91.5000 Du        
  39713 ****       138.7500 145.2500  91.7500 Du        
  39714 ****       138.7500 145.5000  90.7500 Du        
  39715 ****       138.7500 145.5000  91.0000 Du        
  39716 ****       138.7500 145.5000  91.2500 Du        
  39717 ****       138.7500 145.5000  91.5000 Du        
  39718 ****       138.7500 145.5000  91.7500 Du        
  39719 ****       138.7500 145.7500  90.7500 Du        
  39720 ****       138.7500 145.7500  91.0000 Du        
  39721 ****       138.7500 145.7500  91.2500 Du        
  39722 ****       138.7500 145.7500  91.5000 Du        
  39723 ****       138.7500 146.0000  90.5000 Du        
  39724 ****       138.7500 146.0000  90.7500 Du        
  39725 ****       138.7500 146.0000  91.0000 Du        
  39726 ****       138.7500 146.0000  91.2500 Du        
  39727 ****       138.7500 146.2500  90.7500 Du        
  39728 ****       138.7500 146.2500  91.0000 Du        
  39729 ****       138.7500 146.5000  90.7500 Du        
  39730 ****       138.7500 147.0000 123.2500 Du        
  39731 ****       138.7500 147.2500 123.0000 Du        
  39732 ****       138.7500 147.2500 123.2500 Du        
  39733 ****       138.7500 152.7500  95.7500 Du        
  39734 ****       138.7500 152.7500  96.0000 Du        
  39735 ****       138.7500 152.7500  96.2500 Du        
  39736 ****       138.7500 152.7500  96.5000 Du        
  39737 ****       138.7500 152.7500  96.7500 Du        
  39738 ****       138.7500 153.0000  95.7500 Du        
  39739 ****       138.7500 153.0000  96.0000 Du        
  39740 ****       138.7500 153.0000  96.2500 Du        
  39741 ****       138.7500 153.0000  96.5000 Du        
  39742 ****       138.7500 153.0000  96.7500 Du        
  39743 ****       138.7500 153.0000  97.0000 Du        
  39744 ****       138.7500 153.0000  97.2500 Du        
  39745 ****       138.7500 153.2500  95.7500 Du        
  39746 ****       138.7500 153.2500  96.0000 Du        
  39747 ****       138.7500 153.2500  96.2500 Du        
  39748 ****       138.7500 153.2500  96.5000 Du        
  39749 ****       138.7500 153.2500  96.7500 Du        
  39750 ****       138.7500 153.2500  97.0000 Du        
  39751 ****       138.7500 153.2500  97.2500 Du        
  39752 ****       138.7500 153.2500  97.5000 Du        
  39753 ****       138.7500 153.2500  97.7500 Du        
  39754 ****       138.7500 153.5000  96.5000 Du        
  39755 ****       138.7500 153.5000  96.7500 Du        
  39756 ****       138.7500 153.5000  97.0000 Du        
  39757 ****       138.7500 153.5000  97.2500 Du        
  39758 ****       138.7500 153.5000  97.5000 Du        
  39759 ****       138.7500 153.5000  97.7500 Du        
  39760 ****       138.7500 153.5000  98.0000 Du        
  39761 ****       138.7500 153.5000  98.2500 Du        
  39762 ****       138.7500 153.7500  96.5000 Du        
  39763 ****       138.7500 153.7500  96.7500 Du        
  39764 ****       138.7500 153.7500  97.0000 Du        
  39765 ****       138.7500 153.7500  97.2500 Du        
  39766 ****       138.7500 153.7500  97.5000 Du        
  39767 ****       138.7500 153.7500  97.7500 Du        
  39768 ****       138.7500 153.7500  98.0000 Du        
  39769 ****       138.7500 153.7500  98.2500 Du        
  39770 ****       138.7500 153.7500  98.5000 Du        
  39771 ****       138.7500 153.7500 106.2500 Du        
  39772 ****       138.7500 154.0000  96.7500 Du        
  39773 ****       138.7500 154.0000  97.0000 Du        
  39774 ****       138.7500 154.0000  97.2500 Du        
  39775 ****       138.7500 154.0000  97.5000 Du        
  39776 ****       138.7500 154.0000  97.7500 Du        
  39777 ****       138.7500 154.0000  98.0000 Du        
  39778 ****       138.7500 154.0000  98.2500 Du        
  39779 ****       138.7500 154.0000  98.5000 Du        
  39780 ****       138.7500 154.0000  98.7500 Du        
  39781 ****       138.7500 154.0000 106.0000 Du        
  39782 ****       138.7500 154.0000 106.2500 Du        
  39783 ****       138.7500 154.2500  97.2500 Du        
  39784 ****       138.7500 154.2500  97.5000 Du        
  39785 ****       138.7500 154.2500  97.7500 Du        
  39786 ****       138.7500 154.2500  98.0000 Du        
  39787 ****       138.7500 154.2500  98.2500 Du        
  39788 ****       138.7500 154.2500  98.5000 Du        
  39789 ****       138.7500 154.2500  98.7500 Du        
  39790 ****       138.7500 154.2500 106.0000 Du        
  39791 ****       138.7500 154.2500 106.2500 Du        
  39792 ****       138.7500 154.5000  97.7500 Du        
  39793 ****       138.7500 154.5000  98.0000 Du        
  39794 ****       138.7500 154.5000  98.2500 Du        
  39795 ****       138.7500 154.5000  98.5000 Du        
  39796 ****       138.7500 154.5000  98.7500 Du        
  39797 ****       138.7500 154.5000  99.0000 Du        
  39798 ****       138.7500 154.5000 106.0000 Du        
  39799 ****       138.7500 154.7500  98.0000 Du        
  39800 ****       138.7500 154.7500  98.2500 Du        
  39801 ****       138.7500 154.7500  98.5000 Du        
  39802 ****       138.7500 154.7500  98.7500 Du        
  39803 ****       138.7500 154.7500  99.0000 Du        
  39804 ****       138.7500 154.7500  99.2500 Du        
  39805 ****       138.7500 155.0000  98.2500 Du        
  39806 ****       138.7500 155.0000  98.5000 Du        
  39807 ****       138.7500 155.0000  98.7500 Du        
  39808 ****       138.7500 155.0000  99.0000 Du        
  39809 ****       138.7500 155.0000  99.2500 Du        
  39810 ****       138.7500 155.0000  99.5000 Du        
  39811 ****       138.7500 155.2500  98.7500 Du        
  39812 ****       138.7500 155.2500  99.0000 Du        
  39813 ****       138.7500 155.2500  99.2500 Du        
  39814 ****       138.7500 155.2500  99.5000 Du        
  39815 ****       138.7500 160.5000 156.0000 Du        
  39816 ****       138.7500 160.5000 156.2500 Du        
  39817 ****       138.7500 160.7500 155.7500 Du        
  39818 ****       138.7500 160.7500 156.0000 Du        
  39819 ****       138.7500 160.7500 156.2500 Du        
  39820 ****       138.7500 161.0000 155.7500 Du        
  39821 ****       138.7500 161.0000 156.0000 Du        
