#       Name:                CT1002167954
#       Creating user name   hitesit
#       Creation time:       Sun Apr 16 23:02:31 2023


#       File generated by GOLD software.
#

@<TRIPOS>MOLECULE
CT1002167954|ligand_prepared|mol2|1|dock5
    29    30     1
SMALL
NO_CHARGES


@<TRIPOS>ATOM
      1 C1         133.0488 144.6232 126.1125 C.3            1 RES1               0.0000
      2 C2         133.2472 143.8899 127.4547 C.ar           1 RES1               0.0000
      3 C3         131.6908 144.1782 125.5777 C.2            1 RES1               0.0000
      4 C4         133.1372 146.1133 126.4233 C.2            1 RES1               0.0000
      5 C5         134.1263 144.2913 125.0540 C.3            1 RES1               0.0000
      6 C6         132.6034 144.3331 128.6062 C.ar           1 RES1               0.0000
      7 C7         134.0672 142.7693 127.5565 C.ar           1 RES1               0.0000
      8 N8         130.6628 145.0722 125.6415 N.am           1 RES1               0.0000
      9 O9         131.5148 143.0467 125.1430 O.2            1 RES1               0.0000
     10 N10        132.0104 146.8735 126.2491 N.am           1 RES1               0.0000
     11 O11        134.1678 146.6329 126.8335 O.2            1 RES1               0.0000
     12 C12        134.0995 145.2102 123.8428 C.3            1 RES1               0.0000
     13 C13        132.7709 143.6780 129.8150 C.ar           1 RES1               0.0000
     14 C14        134.2335 142.1158 128.7663 C.ar           1 RES1               0.0000
     15 C15        130.7690 146.4148 125.9016 C.2            1 RES1               0.0000
     16 C16        133.5856 142.5688 129.8958 C.ar           1 RES1               0.0000
     17 O17        129.7913 147.1526 125.8180 O.2            1 RES1               0.0000
     18 H18        135.1152 144.3560 125.5245 H              1 RES1               0.0000
     19 H19        133.9828 143.2576 124.7161 H              1 RES1               0.0000
     20 H20        131.9602 145.2057 128.5625 H              1 RES1               0.0000
     21 H21        134.5877 142.3957 126.6812 H              1 RES1               0.0000
     22 H22        129.7288 144.7087 125.4811 H              1 RES1               0.0000
     23 H23        132.1060 147.8739 126.3914 H              1 RES1               0.0000
     24 H24        134.8752 144.9338 123.1317 H              1 RES1               0.0000
     25 H25        133.1387 145.1521 123.3357 H              1 RES1               0.0000
     26 H26        134.2644 146.2440 124.1393 H              1 RES1               0.0000
     27 H27        132.2598 144.0393 130.7012 H              1 RES1               0.0000
     28 H28        134.8761 141.2436 128.8254 H              1 RES1               0.0000
     29 H29        133.7163 142.0555 130.8427 H              1 RES1               0.0000
@<TRIPOS>BOND
    1    1    2 1     
    2    1    3 1     
    3    1    4 1     
    4    1    5 1     
    5    2    6 ar    
    6    2    7 ar    
    7    3    8 1     
    8    3    9 2     
    9    4   10 1     
   10    4   11 2     
   11    5   12 1     
   12    5   18 1     
   13    5   19 1     
   14    6   13 ar    
   15    6   20 1     
   16    7   14 ar    
   17    7   21 1     
   18    8   15 1     
   19    8   22 1     
   20   10   15 1     
   21   10   23 1     
   22   12   24 1     
   23   12   25 1     
   24   12   26 1     
   25   13   16 ar    
   26   13   27 1     
   27   14   16 ar    
   28   14   28 1     
   29   15   17 2     
   30   16   29 1     
@<TRIPOS>SUBSTRUCTURE
      1 RES1           1
@<TRIPOS>SET
DONOR_HYDROGENS      STATIC     ATOMS    <user>   **** ""
2 22 23
ATOM$RED        STATIC     ATOMS    COLORGROUP SYSTEM
2 22 23
@<TRIPOS>COMMENT
> <Gold.Version>
2022.3.0

> <Gold.Id.Protein>
unknown|7rmi_cavity_clean|pdb

> <Gold.Protein.RotatedTorsions>
[ 3787 3780 3778 3775 ] final  120.87 input   60.01 | X-H torsion
[ 7241 7225 7224 7223 ] final  -19.06 input   60.01 | X-H torsion
[ 7244 7226 7227 7228 ] final   45.70 input   59.90 | X-H torsion
[ 7275 7267 7268 7269 ] final -144.83 input   86.30 | X-H torsion
[ 8107 8100 8094 8093 ] final   59.99 input   59.99 | X-H torsion
[ 7259 7254 7253 7250 ] final  158.33 input   59.97 | X-H torsion
[ 7633 7625 7626 7627 ] final  166.48 input   88.29 | X-H torsion
[ 14310 7229 7228 7227 ] final   34.67 input    0.00 | X-H torsion
[ 14346 7628 7627 7626 ] final  -83.25 input    0.00 | X-H torsion

> <Gold.Protein.ActiveResidues>
 THR47   ARG48   ARG49   LYS280  SER281  LEU284  LEU286  CYS294  ASN295  VAL296 
 GLY306  VAL307  LEU308  VAL320  GLY324  MET325  ALA326  VAL327  TRP339  ASN340 
 ASP48   PRO49   LEU50  

> <Gold.Protein.RotatedAtoms>
  128.9082  151.8222  148.8353 H   0  0  0  0  0  0  0  0  0  0  0  0  # atno 3787 bound_to 3780
  134.2991  164.0455  170.8966 H   0  0  0  0  0  0  0  0  0  0  0  0  # atno 7241 bound_to 7225
  134.5452  165.6813  170.7932 H   0  0  0  0  0  0  0  0  0  0  0  0  # atno 7242 bound_to 7225
  133.5607  165.0639  171.9753 H   0  0  0  0  0  0  0  0  0  0  0  0  # atno 7243 bound_to 7225
  124.0255  133.6465   87.3873 H   0  0  0  0  0  0  0  0  0  0  0  0  # atno 7244 bound_to 7226
  124.9136  162.4153  167.9145 H   0  0  0  0  0  0  0  0  0  0  0  0  # atno 7259 bound_to 7254
  123.2632  158.2984  167.5864 H   0  0  0  0  0  0  0  0  0  0  0  0  # atno 7275 bound_to 7267
  123.4930  124.0046  129.1393 H   0  0  0  0  0  0  0  0  0  0  0  0  # atno 7633 bound_to 7625
  127.5370  161.3050  155.7080 H   0  0  0  0  0  0  0  0  0  0  0  0  # atno 8107 bound_to 8100
  128.9667  152.6485  150.2358 LP  0  0  0  0  0  0  0  0  0  0  0  0  # atno 14301 bound_to 3780
  130.0749  151.4914  149.9202 LP  0  0  0  0  0  0  0  0  0  0  0  0  # atno 14302 bound_to 3780
  123.8150  134.7768   86.0660 LP  0  0  0  0  0  0  0  0  0  0  0  0  # atno 14309 bound_to 7226
  123.5863  135.3115   89.0968 LP  0  0  0  0  0  0  0  0  0  0  0  0  # atno 14310 bound_to 7229
  122.8428  134.3746   90.3496 LP  0  0  0  0  0  0  0  0  0  0  0  0  # atno 14311 bound_to 7229
  126.1565  160.7598  155.1919 LP  0  0  0  0  0  0  0  0  0  0  0  0  # atno 14336 bound_to 8100
  125.9367  161.2755  168.4653 LP  0  0  0  0  0  0  0  0  0  0  0  0  # atno 14341 bound_to 7254
  126.3867  162.2573  167.2405 LP  0  0  0  0  0  0  0  0  0  0  0  0  # atno 14342 bound_to 7254
  122.5218  124.5744  130.4739 LP  0  0  0  0  0  0  0  0  0  0  0  0  # atno 14345 bound_to 7625
  123.0080  122.9786  133.6077 LP  0  0  0  0  0  0  0  0  0  0  0  0  # atno 14346 bound_to 7628
  124.6896  123.0517  134.0159 LP  0  0  0  0  0  0  0  0  0  0  0  0  # atno 14347 bound_to 7628

> <Gold.Score>
     Fitness  S(hb_ext) S(vdw_ext)  S(hb_int)    S(int)      intcor
     31.86       0.00      23.28       0.00      -0.15      -0.76

> <Gold.Goldscore.Fitness>
31.8565

> <Gold.Goldscore.Internal.Vdw>
-0.3332

> <Gold.Goldscore.Internal.Torsion>
-0.5751

> <Gold.Goldscore.External.Vdw>
23.2772

> <Gold.Goldscore.Internal.HBond>
0.0000

> <Gold.Goldscore.External.HBond>
0.0000

> <Gold.Goldscore.Internal.Correction>
-0.7585

> <Gold.Goldscore.Internal.Vdw.Weighted>
-0.3332

> <Gold.Goldscore.Internal.Torsion.Weighted>
-0.5751

> <Gold.Goldscore.External.Vdw.Weighted>
32.0062

> <Gold.Goldscore.Internal.HBond.Weighted>
0.0000

> <Gold.Goldscore.External.HBond.Weighted>
0.0000

> <Gold.Goldscore.Internal.Correction.Weighted>
-0.7585

> <Gold.Rescore>
     Score     S(PLP)   S(hbond)     S(cho)   S(metal)  DE(clash)   DE(tors)     intcor
     30.99     -31.22       0.00       0.00       0.00       0.00       0.12       ----

> <Gold.PLP.Fitness>
30.9856

> <Gold.PLP.PLP>
-31.2193

> <Gold.PLP.part.hbond>
0.0000

> <Gold.PLP.part.metal>
0.0000

> <Gold.PLP.part.buried>
-0.2973

> <Gold.PLP.part.nonpolar>
-33.0882

> <Gold.PLP.part.repulsive>
2.0885

> <Gold.PLP.ligand.clash>
0.0000

> <Gold.PLP.ligand.torsion>
0.1168

> <Gold.PLP.Chemscore.Hbond>
0.0000

> <Gold.PLP.Chemscore.CHOScore>
0.0000

> <Gold.PLP.Chemscore.Metal>
0.0000

> <Gold.PLP.Chemscore.Internal.Correction>
   9.000000E+99

