#       Name:                CT1002167954
#       Creating user name   hitesit
#       Creation time:       Sun Apr 16 23:05:27 2023


#       File generated by GOLD software.
#

@<TRIPOS>MOLECULE
CT1002167954|ligand_prepared|mol2|1|dock10
    29    30     1
SMALL
NO_CHARGES


@<TRIPOS>ATOM
      1 C1         132.7989 144.4829 126.3262 C.3            1 RES1               0.0000
      2 C2         133.2755 143.7805 127.6139 C.ar           1 RES1               0.0000
      3 C3         131.3554 144.0402 126.1059 C.2            1 RES1               0.0000
      4 C4         132.9602 145.9791 126.5716 C.2            1 RES1               0.0000
      5 C5         133.6231 144.1131 125.0710 C.3            1 RES1               0.0000
      6 C6         132.9969 144.3263 128.8634 C.ar           1 RES1               0.0000
      7 C7         133.9912 142.5871 127.5685 C.ar           1 RES1               0.0000
      8 N8         130.3700 144.9469 126.3643 N.am           1 RES1               0.0000
      9 O9         131.0840 142.9004 125.7488 O.2            1 RES1               0.0000
     10 N10        131.8266 146.7473 126.6222 N.am           1 RES1               0.0000
     11 O11        134.0576 146.4969 126.7382 O.2            1 RES1               0.0000
     12 C12        133.3266 144.9878 123.8631 C.3            1 RES1               0.0000
     13 C13        133.4160 143.7001 130.0256 C.ar           1 RES1               0.0000
     14 C14        134.4096 141.9627 128.7320 C.ar           1 RES1               0.0000
     15 C15        130.5370 146.2943 126.5603 C.2            1 RES1               0.0000
     16 C16        134.1221 142.5179 129.9607 C.ar           1 RES1               0.0000
     17 O17        129.5683 147.0407 126.6680 O.2            1 RES1               0.0000
     18 H18        134.6900 144.1945 125.3126 H              1 RES1               0.0000
     19 H19        133.4175 143.0679 124.8089 H              1 RES1               0.0000
     20 H20        132.4445 145.2573 128.9342 H              1 RES1               0.0000
     21 H21        134.2297 142.1326 126.6129 H              1 RES1               0.0000
     22 H22        129.4211 144.5901 126.4168 H              1 RES1               0.0000
     23 H23        131.9562 147.7498 126.7144 H              1 RES1               0.0000
     24 H24        133.9313 144.6860 123.0105 H              1 RES1               0.0000
     25 H25        132.2790 144.9117 123.5795 H              1 RES1               0.0000
     26 H26        133.5440 146.0316 124.0802 H              1 RES1               0.0000
     27 H27        133.1884 144.1419 130.9901 H              1 RES1               0.0000
     28 H28        134.9656 141.0327 128.6761 H              1 RES1               0.0000
     29 H29        134.4500 142.0274 130.8713 H              1 RES1               0.0000
@<TRIPOS>BOND
    1    1    2 1     
    2    1    3 1     
    3    1    4 1     
    4    1    5 1     
    5    2    6 ar    
    6    2    7 ar    
    7    3    8 1     
    8    3    9 2     
    9    4   10 1     
   10    4   11 2     
   11    5   12 1     
   12    5   18 1     
   13    5   19 1     
   14    6   13 ar    
   15    6   20 1     
   16    7   14 ar    
   17    7   21 1     
   18    8   15 1     
   19    8   22 1     
   20   10   15 1     
   21   10   23 1     
   22   12   24 1     
   23   12   25 1     
   24   12   26 1     
   25   13   16 ar    
   26   13   27 1     
   27   14   16 ar    
   28   14   28 1     
   29   15   17 2     
   30   16   29 1     
@<TRIPOS>SUBSTRUCTURE
      1 RES1           1
@<TRIPOS>SET
DONOR_HYDROGENS      STATIC     ATOMS    <user>   **** ""
2 22 23
ATOM$RED        STATIC     ATOMS    COLORGROUP SYSTEM
2 22 23
@<TRIPOS>COMMENT
> <Gold.Version>
2022.3.0

> <Gold.Id.Protein>
unknown|7rmi_cavity_clean|pdb

> <Gold.Protein.RotatedTorsions>
[ 3787 3780 3778 3775 ] final  135.14 input   60.01 | X-H torsion
[ 7241 7225 7224 7223 ] final  -96.04 input   60.01 | X-H torsion
[ 7244 7226 7227 7228 ] final   62.87 input   59.90 | X-H torsion
[ 7275 7267 7268 7269 ] final   29.82 input   86.30 | X-H torsion
[ 8107 8100 8094 8093 ] final   59.99 input   59.99 | X-H torsion
[ 7259 7254 7253 7250 ] final   92.94 input   59.97 | X-H torsion
[ 7633 7625 7626 7627 ] final -150.96 input   88.29 | X-H torsion
[ 14310 7229 7228 7227 ] final  156.32 input    0.00 | X-H torsion
[ 14346 7628 7627 7626 ] final  -41.85 input    0.00 | X-H torsion

> <Gold.Protein.ActiveResidues>
 THR47   ARG48   ARG49   LYS280  SER281  LEU284  LEU286  CYS294  ASN295  VAL296 
 GLY306  VAL307  LEU308  VAL320  GLY324  MET325  ALA326  VAL327  TRP339  ASN340 
 ASP48   PRO49   LEU50  

> <Gold.Protein.RotatedAtoms>
  129.0774  151.6638  148.8161 H   0  0  0  0  0  0  0  0  0  0  0  0  # atno 3787 bound_to 3780
  133.6183  164.3840  171.8130 H   0  0  0  0  0  0  0  0  0  0  0  0  # atno 7241 bound_to 7225
  134.6431  164.5264  170.5182 H   0  0  0  0  0  0  0  0  0  0  0  0  # atno 7242 bound_to 7225
  134.1439  165.8806  171.3334 H   0  0  0  0  0  0  0  0  0  0  0  0  # atno 7243 bound_to 7225
  123.9650  133.4723   87.1952 H   0  0  0  0  0  0  0  0  0  0  0  0  # atno 7244 bound_to 7226
  125.1638  161.6521  168.5300 H   0  0  0  0  0  0  0  0  0  0  0  0  # atno 7259 bound_to 7254
  125.0023  158.0539  167.8615 H   0  0  0  0  0  0  0  0  0  0  0  0  # atno 7275 bound_to 7267
  123.0750  123.5591  129.3290 H   0  0  0  0  0  0  0  0  0  0  0  0  # atno 7633 bound_to 7625
  127.5370  161.3050  155.7080 H   0  0  0  0  0  0  0  0  0  0  0  0  # atno 8107 bound_to 8100
  128.8107  152.6746  150.0631 LP  0  0  0  0  0  0  0  0  0  0  0  0  # atno 14301 bound_to 3780
  130.0605  151.6247  150.1122 LP  0  0  0  0  0  0  0  0  0  0  0  0  # atno 14302 bound_to 3780
  123.8734  134.9447   86.2512 LP  0  0  0  0  0  0  0  0  0  0  0  0  # atno 14309 bound_to 7226
  122.6877  135.2036   90.3084 LP  0  0  0  0  0  0  0  0  0  0  0  0  # atno 14310 bound_to 7229
  123.7414  134.4825   89.1380 LP  0  0  0  0  0  0  0  0  0  0  0  0  # atno 14311 bound_to 7229
  126.1565  160.7598  155.1919 LP  0  0  0  0  0  0  0  0  0  0  0  0  # atno 14336 bound_to 8100
  126.6006  161.6049  167.7666 LP  0  0  0  0  0  0  0  0  0  0  0  0  # atno 14341 bound_to 7254
  125.4709  162.6961  167.3197 LP  0  0  0  0  0  0  0  0  0  0  0  0  # atno 14342 bound_to 7254
  122.9320  125.0115  130.2877 LP  0  0  0  0  0  0  0  0  0  0  0  0  # atno 14345 bound_to 7625
  123.3220  122.5454  133.3101 LP  0  0  0  0  0  0  0  0  0  0  0  0  # atno 14346 bound_to 7628
  124.3757  123.4850  134.3135 LP  0  0  0  0  0  0  0  0  0  0  0  0  # atno 14347 bound_to 7628

> <Gold.Score>
     Fitness  S(hb_ext) S(vdw_ext)  S(hb_int)    S(int)      intcor
     31.56       0.00      23.09       0.00      -0.19      -0.76

> <Gold.Goldscore.Fitness>
31.5599

> <Gold.Goldscore.Internal.Vdw>
-0.4019

> <Gold.Goldscore.Internal.Torsion>
-0.5436

> <Gold.Goldscore.External.Vdw>
23.0886

> <Gold.Goldscore.Internal.HBond>
0.0000

> <Gold.Goldscore.External.HBond>
0.0000

> <Gold.Goldscore.Internal.Correction>
-0.7585

> <Gold.Goldscore.Internal.Vdw.Weighted>
-0.4019

> <Gold.Goldscore.Internal.Torsion.Weighted>
-0.5436

> <Gold.Goldscore.External.Vdw.Weighted>
31.7469

> <Gold.Goldscore.Internal.HBond.Weighted>
0.0000

> <Gold.Goldscore.External.HBond.Weighted>
0.0000

> <Gold.Goldscore.Internal.Correction.Weighted>
-0.7585

> <Gold.Rescore>
     Score     S(PLP)   S(hbond)     S(cho)   S(metal)  DE(clash)   DE(tors)     intcor
     28.46     -30.57       0.00       0.00       0.00       0.00       1.05       ----

> <Gold.PLP.Fitness>
28.4626

> <Gold.PLP.PLP>
-30.5671

> <Gold.PLP.part.hbond>
-0.8273

> <Gold.PLP.part.metal>
0.0000

> <Gold.PLP.part.buried>
2.0996

> <Gold.PLP.part.nonpolar>
-32.9888

> <Gold.PLP.part.repulsive>
0.9731

> <Gold.PLP.ligand.clash>
0.0000

> <Gold.PLP.ligand.torsion>
1.0523

> <Gold.PLP.Chemscore.Hbond>
0.0000

> <Gold.PLP.Chemscore.CHOScore>
0.0000

> <Gold.PLP.Chemscore.Metal>
0.0000

> <Gold.PLP.Chemscore.Internal.Correction>
   9.000000E+99

