#       Name:                CT1002167954
#       Creating user name   hitesit
#       Creation time:       Sun Apr 16 23:03:07 2023


#       File generated by GOLD software.
#

@<TRIPOS>MOLECULE
CT1002167954|ligand_prepared|mol2|1|dock6
    29    30     1
SMALL
NO_CHARGES


@<TRIPOS>ATOM
      1 C1         133.9136 143.8402 129.7081 C.3            1 RES1               0.0000
      2 C2         133.4398 143.7924 128.2411 C.ar           1 RES1               0.0000
      3 C3         134.8828 142.6748 129.8835 C.2            1 RES1               0.0000
      4 C4         134.5480 145.2123 129.9070 C.2            1 RES1               0.0000
      5 C5         132.7709 143.6882 130.7390 C.3            1 RES1               0.0000
      6 C6         134.1818 143.1144 127.2786 C.ar           1 RES1               0.0000
      7 C7         132.2636 144.4180 127.8365 C.ar           1 RES1               0.0000
      8 N8         136.2121 142.9664 129.9722 N.am           1 RES1               0.0000
      9 O9         134.4902 141.5148 129.9041 O.2            1 RES1               0.0000
     10 N10        135.8932 145.2668 130.1626 N.am           1 RES1               0.0000
     11 O11        133.8983 146.2477 129.8282 O.2            1 RES1               0.0000
     12 C12        133.2413 143.7190 132.1847 C.3            1 RES1               0.0000
     13 C13        133.7618 143.0613 125.9599 C.ar           1 RES1               0.0000
     14 C14        131.8455 144.3638 126.5171 C.ar           1 RES1               0.0000
     15 C15        136.7596 144.2078 130.1737 C.2            1 RES1               0.0000
     16 C16        132.5933 143.6855 125.5783 C.ar           1 RES1               0.0000
     17 O17        137.9660 144.3428 130.3572 O.2            1 RES1               0.0000
     18 H18        132.0471 144.4982 130.5859 H              1 RES1               0.0000
     19 H19        132.2543 142.7379 130.5560 H              1 RES1               0.0000
     20 H20        135.1053 142.6193 127.5596 H              1 RES1               0.0000
     21 H21        131.6598 144.9584 128.5576 H              1 RES1               0.0000
     22 H22        136.8588 142.1895 129.8800 H              1 RES1               0.0000
     23 H23        136.2849 146.1815 130.3632 H              1 RES1               0.0000
     24 H24        132.4005 143.6085 132.8663 H              1 RES1               0.0000
     25 H25        133.9436 142.9111 132.3791 H              1 RES1               0.0000
     26 H26        133.7377 144.6609 132.4088 H              1 RES1               0.0000
     27 H27        134.3546 142.5272 125.2246 H              1 RES1               0.0000
     28 H28        130.9255 144.8571 126.2212 H              1 RES1               0.0000
     29 H29        132.2642 143.6433 124.5453 H              1 RES1               0.0000
@<TRIPOS>BOND
    1    1    2 1     
    2    1    3 1     
    3    1    4 1     
    4    1    5 1     
    5    2    6 ar    
    6    2    7 ar    
    7    3    8 1     
    8    3    9 2     
    9    4   10 1     
   10    4   11 2     
   11    5   12 1     
   12    5   18 1     
   13    5   19 1     
   14    6   13 ar    
   15    6   20 1     
   16    7   14 ar    
   17    7   21 1     
   18    8   15 1     
   19    8   22 1     
   20   10   15 1     
   21   10   23 1     
   22   12   24 1     
   23   12   25 1     
   24   12   26 1     
   25   13   16 ar    
   26   13   27 1     
   27   14   16 ar    
   28   14   28 1     
   29   15   17 2     
   30   16   29 1     
@<TRIPOS>SUBSTRUCTURE
      1 RES1           1
@<TRIPOS>SET
DONOR_HYDROGENS      STATIC     ATOMS    <user>   **** ""
2 22 23
ATOM$RED        STATIC     ATOMS    COLORGROUP SYSTEM
2 22 23
@<TRIPOS>COMMENT
> <Gold.Version>
2022.3.0

> <Gold.Id.Protein>
unknown|7rmi_cavity_clean|pdb

> <Gold.Protein.RotatedTorsions>
[ 3787 3780 3778 3775 ] final   34.23 input   60.01 | X-H torsion
[ 7241 7225 7224 7223 ] final  124.99 input   60.01 | X-H torsion
[ 7244 7226 7227 7228 ] final    5.18 input   59.90 | X-H torsion
[ 7275 7267 7268 7269 ] final    0.01 input   86.30 | X-H torsion
[ 8107 8100 8094 8093 ] final   59.99 input   59.99 | X-H torsion
[ 7259 7254 7253 7250 ] final   98.20 input   59.97 | X-H torsion
[ 7633 7625 7626 7627 ] final  124.12 input   88.29 | X-H torsion
[ 14310 7229 7228 7227 ] final  110.92 input    0.00 | X-H torsion
[ 14346 7628 7627 7626 ] final  133.23 input    0.00 | X-H torsion

> <Gold.Protein.ActiveResidues>
 THR47   ARG48   ARG49   LYS280  SER281  LEU284  LEU286  CYS294  ASN295  VAL296 
 GLY306  VAL307  LEU308  VAL320  GLY324  MET325  ALA326  VAL327  TRP339  ASN340 
 ASP48   PRO49   LEU50  

> <Gold.Protein.RotatedAtoms>
  128.6588  152.6410  149.7933 H   0  0  0  0  0  0  0  0  0  0  0  0  # atno 3787 bound_to 3780
  134.3356  165.8553  171.0840 H   0  0  0  0  0  0  0  0  0  0  0  0  # atno 7241 bound_to 7225
  133.5527  164.6673  171.9341 H   0  0  0  0  0  0  0  0  0  0  0  0  # atno 7242 bound_to 7225
  134.5170  164.2673  170.6465 H   0  0  0  0  0  0  0  0  0  0  0  0  # atno 7243 bound_to 7225
  124.1180  134.2248   87.5837 H   0  0  0  0  0  0  0  0  0  0  0  0  # atno 7244 bound_to 7226
  125.1069  161.7108  168.5038 H   0  0  0  0  0  0  0  0  0  0  0  0  # atno 7259 bound_to 7254
  124.7767  157.7937  168.1630 H   0  0  0  0  0  0  0  0  0  0  0  0  # atno 7275 bound_to 7267
  123.6528  124.5992  129.3028 H   0  0  0  0  0  0  0  0  0  0  0  0  # atno 7633 bound_to 7625
  127.5370  161.3050  155.7080 H   0  0  0  0  0  0  0  0  0  0  0  0  # atno 8107 bound_to 8100
  129.9698  151.8364  150.3239 LP  0  0  0  0  0  0  0  0  0  0  0  0  # atno 14301 bound_to 3780
  129.3229  151.4792  148.8677 LP  0  0  0  0  0  0  0  0  0  0  0  0  # atno 14302 bound_to 3780
  123.7259  134.2195   85.8768 LP  0  0  0  0  0  0  0  0  0  0  0  0  # atno 14309 bound_to 7226
  122.9244  135.6463   89.8670 LP  0  0  0  0  0  0  0  0  0  0  0  0  # atno 14310 bound_to 7229
  123.5047  134.0398   89.5794 LP  0  0  0  0  0  0  0  0  0  0  0  0  # atno 14311 bound_to 7229
  126.1565  160.7598  155.1919 LP  0  0  0  0  0  0  0  0  0  0  0  0  # atno 14336 bound_to 8100
  126.5805  161.5510  167.8312 LP  0  0  0  0  0  0  0  0  0  0  0  0  # atno 14341 bound_to 7254
  125.5483  162.6908  167.2815 LP  0  0  0  0  0  0  0  0  0  0  0  0  # atno 14342 bound_to 7254
  122.3651  123.9911  130.3134 LP  0  0  0  0  0  0  0  0  0  0  0  0  # atno 14345 bound_to 7625
  124.4315  123.4423  134.2893 LP  0  0  0  0  0  0  0  0  0  0  0  0  # atno 14346 bound_to 7628
  123.2661  122.5880  133.3343 LP  0  0  0  0  0  0  0  0  0  0  0  0  # atno 14347 bound_to 7628

> <Gold.Score>
     Fitness  S(hb_ext) S(vdw_ext)  S(hb_int)    S(int)      intcor
     26.46       0.00      20.56       0.00      -1.81      -0.76

> <Gold.Goldscore.Fitness>
26.4640

> <Gold.Goldscore.Internal.Vdw>
-2.2011

> <Gold.Goldscore.Internal.Torsion>
-0.3672

> <Gold.Goldscore.External.Vdw>
20.5628

> <Gold.Goldscore.Internal.HBond>
0.0000

> <Gold.Goldscore.External.HBond>
0.0000

> <Gold.Goldscore.Internal.Correction>
-0.7585

> <Gold.Goldscore.Internal.Vdw.Weighted>
-2.2011

> <Gold.Goldscore.Internal.Torsion.Weighted>
-0.3672

> <Gold.Goldscore.External.Vdw.Weighted>
28.2738

> <Gold.Goldscore.Internal.HBond.Weighted>
0.0000

> <Gold.Goldscore.External.HBond.Weighted>
0.0000

> <Gold.Goldscore.Internal.Correction.Weighted>
-0.7585

> <Gold.Rescore>
     Score     S(PLP)   S(hbond)     S(cho)   S(metal)  DE(clash)   DE(tors)     intcor
     27.76     -30.12       0.00       0.00       0.00       1.05       0.65       ----

> <Gold.PLP.Fitness>
27.7573

> <Gold.PLP.PLP>
-30.1172

> <Gold.PLP.part.hbond>
0.0000

> <Gold.PLP.part.metal>
0.0000

> <Gold.PLP.part.buried>
-1.8172

> <Gold.PLP.part.nonpolar>
-28.7687

> <Gold.PLP.part.repulsive>
0.1683

> <Gold.PLP.ligand.clash>
1.0532

> <Gold.PLP.ligand.torsion>
0.6534

> <Gold.PLP.Chemscore.Hbond>
0.0000

> <Gold.PLP.Chemscore.CHOScore>
0.0000

> <Gold.PLP.Chemscore.Metal>
0.0000

> <Gold.PLP.Chemscore.Internal.Correction>
   9.000000E+99

