#       Name:                CT1002167954
#       Creating user name   hitesit
#       Creation time:       Sun Apr 16 23:04:17 2023


#       File generated by GOLD software.
#

@<TRIPOS>MOLECULE
CT1002167954|ligand_prepared|mol2|1|dock8
    29    30     1
SMALL
NO_CHARGES


@<TRIPOS>ATOM
      1 C1         137.0258 144.4709 130.5127 C.3            1 RES1               0.0000
      2 C2         135.9361 143.7397 129.7023 C.ar           1 RES1               0.0000
      3 C3         138.3568 144.1222 129.8531 C.2            1 RES1               0.0000
      4 C4         136.6745 145.9536 130.4592 C.2            1 RES1               0.0000
      5 C5         137.0885 144.0481 131.9990 C.3            1 RES1               0.0000
      6 C6         135.9150 143.8164 128.3129 C.ar           1 RES1               0.0000
      7 C7         134.9487 142.9839 130.3287 C.ar           1 RES1               0.0000
      8 N8         138.9678 145.0907 129.1125 N.am           1 RES1               0.0000
      9 O9         138.8432 143.0022 129.9487 O.2            1 RES1               0.0000
     10 N10        137.5330 146.7934 129.7994 N.am           1 RES1               0.0000
     11 O11        135.6536 146.3996 130.9682 O.2            1 RES1               0.0000
     12 C12        138.2278 144.6930 132.7724 C.3            1 RES1               0.0000
     13 C13        134.9438 143.1589 127.5762 C.ar           1 RES1               0.0000
     14 C14        133.9783 142.3273 129.5900 C.ar           1 RES1               0.0000
     15 C15        138.6480 146.4246 129.0973 C.2            1 RES1               0.0000
     16 C16        133.9752 142.4137 128.2141 C.ar           1 RES1               0.0000
     17 O17        139.3399 147.2320 128.4838 O.2            1 RES1               0.0000
     18 H18        136.1396 144.3128 132.4817 H              1 RES1               0.0000
     19 H19        137.1987 142.9579 132.0516 H              1 RES1               0.0000
     20 H20        136.6677 144.4002 127.7936 H              1 RES1               0.0000
     21 H21        134.9309 142.9026 131.4102 H              1 RES1               0.0000
     22 H22        139.7332 144.7960 128.5146 H              1 RES1               0.0000
     23 H23        137.3213 147.7855 129.8351 H              1 RES1               0.0000
     24 H24        138.2260 144.3626 133.8089 H              1 RES1               0.0000
     25 H25        139.1886 144.4302 132.3346 H              1 RES1               0.0000
     26 H26        138.1358 145.7771 132.7621 H              1 RES1               0.0000
     27 H27        134.9449 143.2312 126.4936 H              1 RES1               0.0000
     28 H28        133.2175 141.7424 130.0963 H              1 RES1               0.0000
     29 H29        133.2147 141.8984 127.6367 H              1 RES1               0.0000
@<TRIPOS>BOND
    1    1    2 1     
    2    1    3 1     
    3    1    4 1     
    4    1    5 1     
    5    2    6 ar    
    6    2    7 ar    
    7    3    8 1     
    8    3    9 2     
    9    4   10 1     
   10    4   11 2     
   11    5   12 1     
   12    5   18 1     
   13    5   19 1     
   14    6   13 ar    
   15    6   20 1     
   16    7   14 ar    
   17    7   21 1     
   18    8   15 1     
   19    8   22 1     
   20   10   15 1     
   21   10   23 1     
   22   12   24 1     
   23   12   25 1     
   24   12   26 1     
   25   13   16 ar    
   26   13   27 1     
   27   14   16 ar    
   28   14   28 1     
   29   15   17 2     
   30   16   29 1     
@<TRIPOS>SUBSTRUCTURE
      1 RES1           1
@<TRIPOS>SET
DONOR_HYDROGENS      STATIC     ATOMS    <user>   **** ""
2 22 23
ATOM$RED        STATIC     ATOMS    COLORGROUP SYSTEM
2 22 23
@<TRIPOS>COMMENT
> <Gold.Version>
2022.3.0

> <Gold.Id.Protein>
unknown|7rmi_cavity_clean|pdb

> <Gold.Protein.RotatedTorsions>
[ 3787 3780 3778 3775 ] final  164.31 input   60.01 | X-H torsion
[ 7241 7225 7224 7223 ] final  167.11 input   60.01 | X-H torsion
[ 7244 7226 7227 7228 ] final  -83.74 input   59.90 | X-H torsion
[ 7275 7267 7268 7269 ] final  -10.88 input   86.30 | X-H torsion
[ 8107 8100 8094 8093 ] final -120.01 input   59.99 | X-H torsion
[ 7259 7254 7253 7250 ] final   83.52 input   59.97 | X-H torsion
[ 7633 7625 7626 7627 ] final  126.97 input   88.29 | X-H torsion
[ 14310 7229 7228 7227 ] final  177.79 input    0.00 | X-H torsion
[ 14346 7628 7627 7626 ] final  -12.71 input    0.00 | X-H torsion

> <Gold.Protein.ActiveResidues>
 THR47   ARG48   ARG49   LYS280  SER281  LEU284  LEU286  CYS294  ASN295  VAL296 
 GLY306  VAL307  LEU308  VAL320  GLY324  MET325  ALA326  VAL327  TRP339  ASN340 
 ASP48   PRO49   LEU50  

> <Gold.Protein.RotatedAtoms>
  129.4570  151.4116  148.9370 H   0  0  0  0  0  0  0  0  0  0  0  0  # atno 3787 bound_to 3780
  133.9107  165.7714  171.6178 H   0  0  0  0  0  0  0  0  0  0  0  0  # atno 7241 bound_to 7225
  133.7733  164.1201  171.5806 H   0  0  0  0  0  0  0  0  0  0  0  0  # atno 7242 bound_to 7225
  134.7216  164.8987  170.4659 H   0  0  0  0  0  0  0  0  0  0  0  0  # atno 7243 bound_to 7225
  123.9729  135.1123   86.7168 H   0  0  0  0  0  0  0  0  0  0  0  0  # atno 7244 bound_to 7226
  125.2778  161.5541  168.5632 H   0  0  0  0  0  0  0  0  0  0  0  0  # atno 7259 bound_to 7254
  124.6477  157.7228  168.2455 H   0  0  0  0  0  0  0  0  0  0  0  0  # atno 7275 bound_to 7267
  123.6527  124.5608  129.2815 H   0  0  0  0  0  0  0  0  0  0  0  0  # atno 7633 bound_to 7625
  126.2295  159.9660  155.6453 H   0  0  0  0  0  0  0  0  0  0  0  0  # atno 8107 bound_to 8100
  128.5971  152.5971  149.6463 LP  0  0  0  0  0  0  0  0  0  0  0  0  # atno 14301 bound_to 3780
  129.8920  151.9562  150.4074 LP  0  0  0  0  0  0  0  0  0  0  0  0  # atno 14302 bound_to 3780
  123.8658  133.3642   86.7122 LP  0  0  0  0  0  0  0  0  0  0  0  0  # atno 14309 bound_to 7226
  122.6833  134.8959   90.4051 LP  0  0  0  0  0  0  0  0  0  0  0  0  # atno 14310 bound_to 7229
  123.7458  134.7902   89.0413 LP  0  0  0  0  0  0  0  0  0  0  0  0  # atno 14311 bound_to 7229
  127.4186  160.6879  156.3760 LP  0  0  0  0  0  0  0  0  0  0  0  0  # atno 14336 bound_to 8100
  126.6185  161.7090  167.6534 LP  0  0  0  0  0  0  0  0  0  0  0  0  # atno 14341 bound_to 7254
  125.3383  162.6906  167.3996 LP  0  0  0  0  0  0  0  0  0  0  0  0  # atno 14342 bound_to 7254
  122.3652  124.0288  130.3343 LP  0  0  0  0  0  0  0  0  0  0  0  0  # atno 14345 bound_to 7625
  123.7169  122.3722  133.2468 LP  0  0  0  0  0  0  0  0  0  0  0  0  # atno 14346 bound_to 7628
  123.9808  123.6581  134.3768 LP  0  0  0  0  0  0  0  0  0  0  0  0  # atno 14347 bound_to 7628

> <Gold.Score>
     Fitness  S(hb_ext) S(vdw_ext)  S(hb_int)    S(int)      intcor
     28.08       0.00      20.57       0.00      -0.21      -0.76

> <Gold.Goldscore.Fitness>
28.0789

> <Gold.Goldscore.Internal.Vdw>
-0.5683

> <Gold.Goldscore.Internal.Torsion>
-0.3974

> <Gold.Goldscore.External.Vdw>
20.5717

> <Gold.Goldscore.Internal.HBond>
0.0000

> <Gold.Goldscore.External.HBond>
0.0000

> <Gold.Goldscore.Internal.Correction>
-0.7585

> <Gold.Goldscore.Internal.Vdw.Weighted>
-0.5683

> <Gold.Goldscore.Internal.Torsion.Weighted>
-0.3974

> <Gold.Goldscore.External.Vdw.Weighted>
28.2861

> <Gold.Goldscore.Internal.HBond.Weighted>
0.0000

> <Gold.Goldscore.External.HBond.Weighted>
0.0000

> <Gold.Goldscore.Internal.Correction.Weighted>
-0.7585

> <Gold.Rescore>
     Score     S(PLP)   S(hbond)     S(cho)   S(metal)  DE(clash)   DE(tors)     intcor
     32.09     -32.13       0.00       0.00       0.00       0.00       0.02       ----

> <Gold.PLP.Fitness>
32.0870

> <Gold.PLP.PLP>
-32.1308

> <Gold.PLP.part.hbond>
0.0000

> <Gold.PLP.part.metal>
0.0000

> <Gold.PLP.part.buried>
-2.3532

> <Gold.PLP.part.nonpolar>
-30.7696

> <Gold.PLP.part.repulsive>
0.1265

> <Gold.PLP.ligand.clash>
0.0000

> <Gold.PLP.ligand.torsion>
0.0219

> <Gold.PLP.Chemscore.Hbond>
0.0000

> <Gold.PLP.Chemscore.CHOScore>
0.0000

> <Gold.PLP.Chemscore.Metal>
0.0000

> <Gold.PLP.Chemscore.Internal.Correction>
   9.000000E+99

