#       Name:                CT1002167954
#       Creating user name   hitesit
#       Creation time:       Sun Apr 16 23:03:42 2023


#       File generated by GOLD software.
#

@<TRIPOS>MOLECULE
CT1002167954|ligand_prepared|mol2|1|dock7
    29    30     1
SMALL
NO_CHARGES


@<TRIPOS>ATOM
      1 C1         137.1408 144.4481 130.9612 C.3            1 RES1               0.0000
      2 C2         135.7573 143.7850 131.1197 C.ar           1 RES1               0.0000
      3 C3         137.1714 145.6155 131.9433 C.2            1 RES1               0.0000
      4 C4         138.1703 143.3621 131.2535 C.2            1 RES1               0.0000
      5 C5         137.4129 144.9943 129.5402 C.3            1 RES1               0.0000
      6 C6         134.9366 144.1066 132.1965 C.ar           1 RES1               0.0000
      7 C7         135.2878 142.8537 130.1973 C.ar           1 RES1               0.0000
      8 N8         137.9274 145.4741 133.0695 N.am           1 RES1               0.0000
      9 O9         136.5109 146.6291 131.7518 O.2            1 RES1               0.0000
     10 N10        138.9607 143.5086 132.3633 N.am           1 RES1               0.0000
     11 O11        138.2928 142.3726 130.5420 O.2            1 RES1               0.0000
     12 C12        138.7265 145.7498 129.4149 C.3            1 RES1               0.0000
     13 C13        133.6903 143.5206 132.3444 C.ar           1 RES1               0.0000
     14 C14        134.0413 142.2686 130.3472 C.ar           1 RES1               0.0000
     15 C15        138.8649 144.5000 133.3014 C.2            1 RES1               0.0000
     16 C16        133.2417 142.6017 131.4198 C.ar           1 RES1               0.0000
     17 O17        139.5755 144.5341 134.3020 O.2            1 RES1               0.0000
     18 H18        137.4198 144.1545 128.8345 H              1 RES1               0.0000
     19 H19        136.5918 145.6642 129.2563 H              1 RES1               0.0000
     20 H20        135.2737 144.8258 132.9356 H              1 RES1               0.0000
     21 H21        135.9002 142.5756 129.3463 H              1 RES1               0.0000
     22 H22        137.7822 146.1557 133.8076 H              1 RES1               0.0000
     23 H23        139.6879 142.8143 132.5029 H              1 RES1               0.0000
     24 H24        138.8680 146.1114 128.3986 H              1 RES1               0.0000
     25 H25        138.7440 146.6068 130.0850 H              1 RES1               0.0000
     26 H26        139.5671 145.1061 129.6657 H              1 RES1               0.0000
     27 H27        133.0654 143.7851 133.1911 H              1 RES1               0.0000
     28 H28        133.6926 141.5455 129.6175 H              1 RES1               0.0000
     29 H29        132.2653 142.1431 131.5357 H              1 RES1               0.0000
@<TRIPOS>BOND
    1    1    2 1     
    2    1    3 1     
    3    1    4 1     
    4    1    5 1     
    5    2    6 ar    
    6    2    7 ar    
    7    3    8 1     
    8    3    9 2     
    9    4   10 1     
   10    4   11 2     
   11    5   12 1     
   12    5   18 1     
   13    5   19 1     
   14    6   13 ar    
   15    6   20 1     
   16    7   14 ar    
   17    7   21 1     
   18    8   15 1     
   19    8   22 1     
   20   10   15 1     
   21   10   23 1     
   22   12   24 1     
   23   12   25 1     
   24   12   26 1     
   25   13   16 ar    
   26   13   27 1     
   27   14   16 ar    
   28   14   28 1     
   29   15   17 2     
   30   16   29 1     
@<TRIPOS>SUBSTRUCTURE
      1 RES1           1
@<TRIPOS>SET
DONOR_HYDROGENS      STATIC     ATOMS    <user>   **** ""
2 22 23
ATOM$RED        STATIC     ATOMS    COLORGROUP SYSTEM
2 22 23
@<TRIPOS>COMMENT
> <Gold.Version>
2022.3.0

> <Gold.Id.Protein>
unknown|7rmi_cavity_clean|pdb

> <Gold.Protein.RotatedTorsions>
[ 3787 3780 3778 3775 ] final   23.37 input   60.01 | X-H torsion
[ 7241 7225 7224 7223 ] final  146.53 input   60.01 | X-H torsion
[ 7244 7226 7227 7228 ] final   75.65 input   59.90 | X-H torsion
[ 7275 7267 7268 7269 ] final  102.69 input   86.30 | X-H torsion
[ 8107 8100 8094 8093 ] final   59.99 input   59.99 | X-H torsion
[ 7259 7254 7253 7250 ] final -142.99 input   59.97 | X-H torsion
[ 7633 7625 7626 7627 ] final -162.93 input   88.29 | X-H torsion
[ 14310 7229 7228 7227 ] final   -6.19 input    0.00 | X-H torsion
[ 14346 7628 7627 7626 ] final   89.19 input    0.00 | X-H torsion

> <Gold.Protein.ActiveResidues>
 THR47   ARG48   ARG49   LYS280  SER281  LEU284  LEU286  CYS294  ASN295  VAL296 
 GLY306  VAL307  LEU308  VAL320  GLY324  MET325  ALA326  VAL327  TRP339  ASN340 
 ASP48   PRO49   LEU50  

> <Gold.Protein.RotatedAtoms>
  128.7404  152.6679  149.9481 H   0  0  0  0  0  0  0  0  0  0  0  0  # atno 3787 bound_to 3780
  134.1174  165.8756  171.3663 H   0  0  0  0  0  0  0  0  0  0  0  0  # atno 7241 bound_to 7225
  133.6318  164.3490  171.7916 H   0  0  0  0  0  0  0  0  0  0  0  0  # atno 7242 bound_to 7225
  134.6563  164.5654  170.5065 H   0  0  0  0  0  0  0  0  0  0  0  0  # atno 7243 bound_to 7225
  123.9162  133.3855   87.0235 H   0  0  0  0  0  0  0  0  0  0  0  0  # atno 7244 bound_to 7226
  125.5331  162.6897  167.2952 H   0  0  0  0  0  0  0  0  0  0  0  0  # atno 7259 bound_to 7254
  124.6096  158.6970  167.1202 H   0  0  0  0  0  0  0  0  0  0  0  0  # atno 7275 bound_to 7267
  123.2075  123.6525  129.2423 H   0  0  0  0  0  0  0  0  0  0  0  0  # atno 7633 bound_to 7625
  127.5370  161.3050  155.7080 H   0  0  0  0  0  0  0  0  0  0  0  0  # atno 8107 bound_to 8100
  130.0310  151.7124  150.2111 LP  0  0  0  0  0  0  0  0  0  0  0  0  # atno 14301 bound_to 3780
  129.1795  151.5760  148.8244 LP  0  0  0  0  0  0  0  0  0  0  0  0  # atno 14302 bound_to 3780
  123.9204  135.0284   86.4166 LP  0  0  0  0  0  0  0  0  0  0  0  0  # atno 14309 bound_to 7226
  123.7507  134.7314   89.0523 LP  0  0  0  0  0  0  0  0  0  0  0  0  # atno 14310 bound_to 7229
  122.6784  134.9547   90.3941 LP  0  0  0  0  0  0  0  0  0  0  0  0  # atno 14311 bound_to 7229
  126.1565  160.7598  155.1919 LP  0  0  0  0  0  0  0  0  0  0  0  0  # atno 14336 bound_to 8100
  125.1142  161.6938  168.5125 LP  0  0  0  0  0  0  0  0  0  0  0  0  # atno 14341 bound_to 7254
  126.5856  161.5629  167.8166 LP  0  0  0  0  0  0  0  0  0  0  0  0  # atno 14342 bound_to 7254
  122.8020  124.9200  130.3728 LP  0  0  0  0  0  0  0  0  0  0  0  0  # atno 14345 bound_to 7625
  124.7030  122.9634  133.9449 LP  0  0  0  0  0  0  0  0  0  0  0  0  # atno 14346 bound_to 7628
  122.9946  123.0669  133.6788 LP  0  0  0  0  0  0  0  0  0  0  0  0  # atno 14347 bound_to 7628

> <Gold.Score>
     Fitness  S(hb_ext) S(vdw_ext)  S(hb_int)    S(int)      intcor
     30.81       0.00      23.72       0.00      -1.81      -0.76

> <Gold.Goldscore.Fitness>
30.8053

> <Gold.Goldscore.Internal.Vdw>
-2.1651

> <Gold.Goldscore.Internal.Torsion>
-0.4064

> <Gold.Goldscore.External.Vdw>
23.7224

> <Gold.Goldscore.Internal.HBond>
0.0000

> <Gold.Goldscore.External.HBond>
0.0000

> <Gold.Goldscore.Internal.Correction>
-0.7585

> <Gold.Goldscore.Internal.Vdw.Weighted>
-2.1651

> <Gold.Goldscore.Internal.Torsion.Weighted>
-0.4064

> <Gold.Goldscore.External.Vdw.Weighted>
32.6183

> <Gold.Goldscore.Internal.HBond.Weighted>
0.0000

> <Gold.Goldscore.External.HBond.Weighted>
0.0000

> <Gold.Goldscore.Internal.Correction.Weighted>
-0.7585

> <Gold.Rescore>
     Score     S(PLP)   S(hbond)     S(cho)   S(metal)  DE(clash)   DE(tors)     intcor
     35.37     -37.58       0.00       0.00       0.00       1.73       0.24       ----

> <Gold.PLP.Fitness>
35.3679

> <Gold.PLP.PLP>
-37.5783

> <Gold.PLP.part.hbond>
0.0000

> <Gold.PLP.part.metal>
0.0000

> <Gold.PLP.part.buried>
-2.2911

> <Gold.PLP.part.nonpolar>
-36.4061

> <Gold.PLP.part.repulsive>
0.1645

> <Gold.PLP.ligand.clash>
1.7277

> <Gold.PLP.ligand.torsion>
0.2414

> <Gold.PLP.Chemscore.Hbond>
0.0000

> <Gold.PLP.Chemscore.CHOScore>
0.0000

> <Gold.PLP.Chemscore.Metal>
0.0000

> <Gold.PLP.Chemscore.Internal.Correction>
   9.000000E+99

