#       Name:                CT1002167954
#       Creating user name   hitesit
#       Creation time:       Sun Apr 16 23:00:10 2023


#       File generated by GOLD software.
#

@<TRIPOS>MOLECULE
CT1002167954|ligand_prepared|mol2|1|dock1
    29    30     1
SMALL
NO_CHARGES


@<TRIPOS>ATOM
      1 C1         131.7255 144.8064 126.7738 C.3            1 RES1               0.0000
      2 C2         132.4978 144.1052 127.9099 C.ar           1 RES1               0.0000
      3 C3         132.4297 146.1390 126.5360 C.2            1 RES1               0.0000
      4 C4         131.7683 143.8585 125.5805 C.2            1 RES1               0.0000
      5 C5         130.2419 145.0876 127.1077 C.3            1 RES1               0.0000
      6 C6         132.2634 144.4427 129.2395 C.ar           1 RES1               0.0000
      7 C7         133.4440 143.1189 127.6445 C.ar           1 RES1               0.0000
      8 N8         133.1915 146.2591 125.4112 N.am           1 RES1               0.0000
      9 O9         132.3498 147.0570 127.3430 O.2            1 RES1               0.0000
     10 N10        132.4576 144.2596 124.4662 N.am           1 RES1               0.0000
     11 O11        131.2253 142.7607 125.6011 O.2            1 RES1               0.0000
     12 C12        129.4177 145.5330 125.9100 C.3            1 RES1               0.0000
     13 C13        132.9479 143.8148 130.2669 C.ar           1 RES1               0.0000
     14 C14        134.1277 142.4924 128.6735 C.ar           1 RES1               0.0000
     15 C15        133.1970 145.4039 124.3387 C.2            1 RES1               0.0000
     16 C16        133.8801 142.8391 129.9847 C.ar           1 RES1               0.0000
     17 O17        133.8343 145.6694 123.3236 O.2            1 RES1               0.0000
     18 H18        129.7951 144.1767 127.5248 H              1 RES1               0.0000
     19 H19        130.1949 145.8672 127.8781 H              1 RES1               0.0000
     20 H20        131.5353 145.2099 129.4808 H              1 RES1               0.0000
     21 H21        133.6559 142.8308 126.6205 H              1 RES1               0.0000
     22 H22        133.8148 147.0588 125.3630 H              1 RES1               0.0000
     23 H23        132.4156 143.6486 123.6567 H              1 RES1               0.0000
     24 H24        128.3851 145.7168 126.1992 H              1 RES1               0.0000
     25 H25        129.8191 146.4507 125.4852 H              1 RES1               0.0000
     26 H26        129.4216 144.7702 125.1340 H              1 RES1               0.0000
     27 H27        132.7504 144.0922 131.2971 H              1 RES1               0.0000
     28 H28        134.8609 141.7255 128.4467 H              1 RES1               0.0000
     29 H29        134.4159 142.3471 130.7897 H              1 RES1               0.0000
@<TRIPOS>BOND
    1    1    2 1     
    2    1    3 1     
    3    1    4 1     
    4    1    5 1     
    5    2    6 ar    
    6    2    7 ar    
    7    3    8 1     
    8    3    9 2     
    9    4   10 1     
   10    4   11 2     
   11    5   12 1     
   12    5   18 1     
   13    5   19 1     
   14    6   13 ar    
   15    6   20 1     
   16    7   14 ar    
   17    7   21 1     
   18    8   15 1     
   19    8   22 1     
   20   10   15 1     
   21   10   23 1     
   22   12   24 1     
   23   12   25 1     
   24   12   26 1     
   25   13   16 ar    
   26   13   27 1     
   27   14   16 ar    
   28   14   28 1     
   29   15   17 2     
   30   16   29 1     
@<TRIPOS>SUBSTRUCTURE
      1 RES1           1
@<TRIPOS>SET
DONOR_HYDROGENS      STATIC     ATOMS    <user>   **** ""
2 22 23
ATOM$RED        STATIC     ATOMS    COLORGROUP SYSTEM
2 22 23
@<TRIPOS>COMMENT
> <Gold.Version>
2022.3.0

> <Gold.Id.Protein>
unknown|7rmi_cavity_clean|pdb

> <Gold.Protein.RotatedTorsions>
[ 3787 3780 3778 3775 ] final  -71.25 input   60.01 | X-H torsion
[ 7241 7225 7224 7223 ] final  -78.16 input   60.01 | X-H torsion
[ 7244 7226 7227 7228 ] final  147.81 input   59.90 | X-H torsion
[ 7275 7267 7268 7269 ] final   -5.92 input   86.30 | X-H torsion
[ 8107 8100 8094 8093 ] final -120.01 input   59.99 | X-H torsion
[ 7259 7254 7253 7250 ] final   38.79 input   59.97 | X-H torsion
[ 7633 7625 7626 7627 ] final  -68.52 input   88.29 | X-H torsion
[ 14310 7229 7228 7227 ] final -121.13 input    0.00 | X-H torsion
[ 14346 7628 7627 7626 ] final -115.16 input    0.00 | X-H torsion

> <Gold.Protein.ActiveResidues>
 THR47   ARG48   ARG49   LYS280  SER281  LEU284  LEU286  CYS294  ASN295  VAL296 
 GLY306  VAL307  LEU308  VAL320  GLY324  MET325  ALA326  VAL327  TRP339  ASN340 
 ASP48   PRO49   LEU50  

> <Gold.Protein.RotatedAtoms>
  129.8500  152.0117  150.4303 H   0  0  0  0  0  0  0  0  0  0  0  0  # atno 3787 bound_to 3780
  133.7317  164.1704  171.6401 H   0  0  0  0  0  0  0  0  0  0  0  0  # atno 7241 bound_to 7225
  134.7117  164.8112  170.4671 H   0  0  0  0  0  0  0  0  0  0  0  0  # atno 7242 bound_to 7225
  133.9618  165.8094  171.5576 H   0  0  0  0  0  0  0  0  0  0  0  0  # atno 7243 bound_to 7225
  123.6971  133.6820   86.0400 H   0  0  0  0  0  0  0  0  0  0  0  0  # atno 7244 bound_to 7226
  125.9297  161.2826  168.4663 H   0  0  0  0  0  0  0  0  0  0  0  0  # atno 7259 bound_to 7254
  124.7090  157.7531  168.2103 H   0  0  0  0  0  0  0  0  0  0  0  0  # atno 7275 bound_to 7267
  122.3714  123.8260  130.2140 H   0  0  0  0  0  0  0  0  0  0  0  0  # atno 7633 bound_to 7625
  126.2295  159.9660  155.6453 H   0  0  0  0  0  0  0  0  0  0  0  0  # atno 8107 bound_to 8100
  129.5136  151.3784  148.9696 LP  0  0  0  0  0  0  0  0  0  0  0  0  # atno 14301 bound_to 3780
  128.5798  152.5706  149.5806 LP  0  0  0  0  0  0  0  0  0  0  0  0  # atno 14302 bound_to 3780
  124.1315  134.7426   87.3644 LP  0  0  0  0  0  0  0  0  0  0  0  0  # atno 14309 bound_to 7226
  123.0352  134.1238   90.1710 LP  0  0  0  0  0  0  0  0  0  0  0  0  # atno 14310 bound_to 7229
  123.3939  135.5623   89.2754 LP  0  0  0  0  0  0  0  0  0  0  0  0  # atno 14311 bound_to 7229
  127.4186  160.6879  156.3760 LP  0  0  0  0  0  0  0  0  0  0  0  0  # atno 14336 bound_to 8100
  126.3914  162.2520  167.2431 LP  0  0  0  0  0  0  0  0  0  0  0  0  # atno 14341 bound_to 7254
  124.9093  162.4208  167.9074 LP  0  0  0  0  0  0  0  0  0  0  0  0  # atno 14342 bound_to 7254
  123.6223  124.7497  129.4195 LP  0  0  0  0  0  0  0  0  0  0  0  0  # atno 14345 bound_to 7625
  123.0520  123.3377  133.9171 LP  0  0  0  0  0  0  0  0  0  0  0  0  # atno 14346 bound_to 7628
  124.6456  122.6926  133.7065 LP  0  0  0  0  0  0  0  0  0  0  0  0  # atno 14347 bound_to 7628

> <Gold.Score>
     Fitness  S(hb_ext) S(vdw_ext)  S(hb_int)    S(int)      intcor
     31.05       0.00      23.22       0.00      -0.88      -0.77

> <Gold.Goldscore.Fitness>
31.0479

> <Gold.Goldscore.Internal.Vdw>
-1.1034

> <Gold.Goldscore.Internal.Torsion>
-0.5501

> <Gold.Goldscore.External.Vdw>
23.2239

> <Gold.Goldscore.Internal.HBond>
0.0000

> <Gold.Goldscore.External.HBond>
0.0000

> <Gold.Goldscore.Internal.Correction>
-0.7686

> <Gold.Goldscore.Internal.Vdw.Weighted>
-1.1034

> <Gold.Goldscore.Internal.Torsion.Weighted>
-0.5501

> <Gold.Goldscore.External.Vdw.Weighted>
31.9328

> <Gold.Goldscore.Internal.HBond.Weighted>
0.0000

> <Gold.Goldscore.External.HBond.Weighted>
0.0000

> <Gold.Goldscore.Internal.Correction.Weighted>
-0.7686

> <Gold.Rescore>
     Score     S(PLP)   S(hbond)     S(cho)   S(metal)  DE(clash)   DE(tors)     intcor
     29.97     -31.81       0.00       0.00       0.00       0.87       0.49       ----

> <Gold.PLP.Fitness>
29.9690

> <Gold.PLP.PLP>
-31.8105

> <Gold.PLP.part.hbond>
0.0000

> <Gold.PLP.part.metal>
0.0000

> <Gold.PLP.part.buried>
-1.7484

> <Gold.PLP.part.nonpolar>
-30.4579

> <Gold.PLP.part.repulsive>
0.2054

> <Gold.PLP.ligand.clash>
0.8677

> <Gold.PLP.ligand.torsion>
0.4869

> <Gold.PLP.Chemscore.Hbond>
0.0000

> <Gold.PLP.Chemscore.CHOScore>
0.0000

> <Gold.PLP.Chemscore.Metal>
0.0000

> <Gold.PLP.Chemscore.Internal.Correction>
   9.000000E+99

