#       Name:                CT1002167954
#       Creating user name   hitesit
#       Creation time:       Sun Apr 16 23:01:21 2023


#       File generated by GOLD software.
#

@<TRIPOS>MOLECULE
CT1002167954|ligand_prepared|mol2|1|dock3
    29    30     1
SMALL
NO_CHARGES


@<TRIPOS>ATOM
      1 C1         137.0043 144.5566 130.6291 C.3            1 RES1               0.0000
      2 C2         135.9060 143.8550 129.8043 C.ar           1 RES1               0.0000
      3 C3         138.3306 143.9506 130.1797 C.2            1 RES1               0.0000
      4 C4         136.8706 146.0471 130.3370 C.2            1 RES1               0.0000
      5 C5         136.8642 144.3546 132.1559 C.3            1 RES1               0.0000
      6 C6         134.7020 143.4858 130.3966 C.ar           1 RES1               0.0000
      7 C7         136.0809 143.5733 128.4520 C.ar           1 RES1               0.0000
      8 N8         139.1394 144.7146 129.3910 N.am           1 RES1               0.0000
      9 O9         138.6442 142.8053 130.4801 O.2            1 RES1               0.0000
     10 N10        137.8975 146.6660 129.6735 N.am           1 RES1               0.0000
     11 O11        135.8780 146.6876 130.6606 O.2            1 RES1               0.0000
     12 C12        138.0822 144.8030 132.9480 C.3            1 RES1               0.0000
     13 C13        133.7076 142.8602 129.6629 C.ar           1 RES1               0.0000
     14 C14        135.0853 142.9474 127.7203 C.ar           1 RES1               0.0000
     15 C15        139.0122 146.0608 129.1601 C.2            1 RES1               0.0000
     16 C16        133.8984 142.5910 128.3244 C.ar           1 RES1               0.0000
     17 O17        139.8660 146.6756 128.5275 O.2            1 RES1               0.0000
     18 H18        135.9887 144.9145 132.5073 H              1 RES1               0.0000
     19 H19        136.6846 143.2911 132.3563 H              1 RES1               0.0000
     20 H20        134.5349 143.6873 131.4494 H              1 RES1               0.0000
     21 H21        137.0070 143.8436 127.9561 H              1 RES1               0.0000
     22 H22        139.9099 144.2412 128.9301 H              1 RES1               0.0000
     23 H23        137.8243 147.6710 129.5510 H              1 RES1               0.0000
     24 H24        137.9314 144.6393 134.0130 H              1 RES1               0.0000
     25 H25        138.9670 144.2487 132.6419 H              1 RES1               0.0000
     26 H26        138.2752 145.8624 132.7920 H              1 RES1               0.0000
     27 H27        132.7759 142.5805 130.1434 H              1 RES1               0.0000
     28 H28        135.2399 142.7369 126.6672 H              1 RES1               0.0000
     29 H29        133.1191 142.1013 127.7498 H              1 RES1               0.0000
@<TRIPOS>BOND
    1    1    2 1     
    2    1    3 1     
    3    1    4 1     
    4    1    5 1     
    5    2    6 ar    
    6    2    7 ar    
    7    3    8 1     
    8    3    9 2     
    9    4   10 1     
   10    4   11 2     
   11    5   12 1     
   12    5   18 1     
   13    5   19 1     
   14    6   13 ar    
   15    6   20 1     
   16    7   14 ar    
   17    7   21 1     
   18    8   15 1     
   19    8   22 1     
   20   10   15 1     
   21   10   23 1     
   22   12   24 1     
   23   12   25 1     
   24   12   26 1     
   25   13   16 ar    
   26   13   27 1     
   27   14   16 ar    
   28   14   28 1     
   29   15   17 2     
   30   16   29 1     
@<TRIPOS>SUBSTRUCTURE
      1 RES1           1
@<TRIPOS>SET
DONOR_HYDROGENS      STATIC     ATOMS    <user>   **** ""
2 22 23
ATOM$RED        STATIC     ATOMS    COLORGROUP SYSTEM
2 22 23
@<TRIPOS>COMMENT
> <Gold.Version>
2022.3.0

> <Gold.Id.Protein>
unknown|7rmi_cavity_clean|pdb

> <Gold.Protein.RotatedTorsions>
[ 3787 3780 3778 3775 ] final  146.00 input   60.01 | X-H torsion
[ 7241 7225 7224 7223 ] final -105.82 input   60.01 | X-H torsion
[ 7244 7226 7227 7228 ] final -148.49 input   59.90 | X-H torsion
[ 7275 7267 7268 7269 ] final -110.34 input   86.30 | X-H torsion
[ 8107 8100 8094 8093 ] final -120.01 input   59.99 | X-H torsion
[ 7259 7254 7253 7250 ] final  -36.25 input   59.97 | X-H torsion
[ 7633 7625 7626 7627 ] final -164.62 input   88.29 | X-H torsion
[ 14310 7229 7228 7227 ] final    5.15 input    0.00 | X-H torsion
[ 14346 7628 7627 7626 ] final  129.89 input    0.00 | X-H torsion

> <Gold.Protein.ActiveResidues>
 THR47   ARG48   ARG49   LYS280  SER281  LEU284  LEU286  CYS294  ASN295  VAL296 
 GLY306  VAL307  LEU308  VAL320  GLY324  MET325  ALA326  VAL327  TRP339  ASN340 
 ASP48   PRO49   LEU50  

> <Gold.Protein.RotatedAtoms>
  129.2167  151.5563  148.8366 H   0  0  0  0  0  0  0  0  0  0  0  0  # atno 3787 bound_to 3780
  133.5769  164.5247  171.8843 H   0  0  0  0  0  0  0  0  0  0  0  0  # atno 7241 bound_to 7225
  134.5842  164.3854  170.5755 H   0  0  0  0  0  0  0  0  0  0  0  0  # atno 7242 bound_to 7225
  134.2443  165.8808  171.2048 H   0  0  0  0  0  0  0  0  0  0  0  0  # atno 7243 bound_to 7225
  123.7425  134.6162   85.9339 H   0  0  0  0  0  0  0  0  0  0  0  0  # atno 7244 bound_to 7226
  126.6137  161.7099  167.6593 H   0  0  0  0  0  0  0  0  0  0  0  0  # atno 7259 bound_to 7254
  123.3363  157.9563  167.9813 H   0  0  0  0  0  0  0  0  0  0  0  0  # atno 7275 bound_to 7267
  123.2256  123.6680  129.2320 H   0  0  0  0  0  0  0  0  0  0  0  0  # atno 7633 bound_to 7625
  126.2295  159.9660  155.6453 H   0  0  0  0  0  0  0  0  0  0  0  0  # atno 8107 bound_to 8100
  128.7125  152.6661  149.9145 LP  0  0  0  0  0  0  0  0  0  0  0  0  # atno 14301 bound_to 3780
  130.0185  151.7416  150.2403 LP  0  0  0  0  0  0  0  0  0  0  0  0  # atno 14302 bound_to 3780
  124.0878  133.8423   87.4667 LP  0  0  0  0  0  0  0  0  0  0  0  0  # atno 14309 bound_to 7226
  123.7301  134.8998   89.0297 LP  0  0  0  0  0  0  0  0  0  0  0  0  # atno 14310 bound_to 7229
  122.6990  134.7863   90.4168 LP  0  0  0  0  0  0  0  0  0  0  0  0  # atno 14311 bound_to 7229
  127.4186  160.6879  156.3760 LP  0  0  0  0  0  0  0  0  0  0  0  0  # atno 14336 bound_to 8100
  125.3416  162.6909  167.3974 LP  0  0  0  0  0  0  0  0  0  0  0  0  # atno 14341 bound_to 7254
  125.2708  161.5518  168.5653 LP  0  0  0  0  0  0  0  0  0  0  0  0  # atno 14342 bound_to 7254
  122.7843  124.9047  130.3829 LP  0  0  0  0  0  0  0  0  0  0  0  0  # atno 14345 bound_to 7625
  124.4670  123.4115  134.2709 LP  0  0  0  0  0  0  0  0  0  0  0  0  # atno 14346 bound_to 7628
  123.2307  122.6188  133.3527 LP  0  0  0  0  0  0  0  0  0  0  0  0  # atno 14347 bound_to 7628

> <Gold.Score>
     Fitness  S(hb_ext) S(vdw_ext)  S(hb_int)    S(int)      intcor
     27.33       0.00      20.33       0.00      -0.62      -0.76

> <Gold.Goldscore.Fitness>
27.3252

> <Gold.Goldscore.Internal.Vdw>
-0.8026

> <Gold.Goldscore.Internal.Torsion>
-0.5809

> <Gold.Goldscore.External.Vdw>
20.3273

> <Gold.Goldscore.Internal.HBond>
0.0000

> <Gold.Goldscore.External.HBond>
0.0000

> <Gold.Goldscore.Internal.Correction>
-0.7585

> <Gold.Goldscore.Internal.Vdw.Weighted>
-0.8026

> <Gold.Goldscore.Internal.Torsion.Weighted>
-0.5809

> <Gold.Goldscore.External.Vdw.Weighted>
27.9501

> <Gold.Goldscore.Internal.HBond.Weighted>
0.0000

> <Gold.Goldscore.External.HBond.Weighted>
0.0000

> <Gold.Goldscore.Internal.Correction.Weighted>
-0.7585

> <Gold.Rescore>
     Score     S(PLP)   S(hbond)     S(cho)   S(metal)  DE(clash)   DE(tors)     intcor
     37.81     -39.45       0.00       0.00       0.00       0.00       0.82       ----

> <Gold.PLP.Fitness>
37.8100

> <Gold.PLP.PLP>
-39.4516

> <Gold.PLP.part.hbond>
0.0000

> <Gold.PLP.part.metal>
0.0000

> <Gold.PLP.part.buried>
-3.0887

> <Gold.PLP.part.nonpolar>
-37.1943

> <Gold.PLP.part.repulsive>
0.1616

> <Gold.PLP.ligand.clash>
0.0000

> <Gold.PLP.ligand.torsion>
0.8208

> <Gold.PLP.Chemscore.Hbond>
0.0000

> <Gold.PLP.Chemscore.CHOScore>
0.0000

> <Gold.PLP.Chemscore.Metal>
0.0000

> <Gold.PLP.Chemscore.Internal.Correction>
   9.000000E+99

