#       Name:                CT1002167954
#       Creating user name   hitesit
#       Creation time:       Sun Apr 16 23:01:56 2023


#       File generated by GOLD software.
#

@<TRIPOS>MOLECULE
CT1002167954|ligand_prepared|mol2|1|dock4
    29    30     1
SMALL
NO_CHARGES


@<TRIPOS>ATOM
      1 C1         121.9289 152.6316 153.0887 C.3            1 RES1               0.0000
      2 C2         122.7379 152.8447 154.3845 C.ar           1 RES1               0.0000
      3 C3         122.2549 151.2208 152.6073 C.2            1 RES1               0.0000
      4 C4         120.4650 152.8392 153.4608 C.2            1 RES1               0.0000
      5 C5         122.2814 153.6292 151.9609 C.3            1 RES1               0.0000
      6 C6         124.1063 153.0929 154.3328 C.ar           1 RES1               0.0000
      7 C7         122.1303 152.7988 155.6364 C.ar           1 RES1               0.0000
      8 N8         121.2978 150.2623 152.7654 N.am           1 RES1               0.0000
      9 O9         123.3497 150.9447 152.1324 O.2            1 RES1               0.0000
     10 N10        119.6230 151.7611 153.3806 N.am           1 RES1               0.0000
     11 O11        120.0366 153.9227 153.8385 O.2            1 RES1               0.0000
     12 C12        121.3402 153.5639 150.7684 C.3            1 RES1               0.0000
     13 C13        124.8402 153.2910 155.4905 C.ar           1 RES1               0.0000
     14 C14        122.8663 152.9969 156.7930 C.ar           1 RES1               0.0000
     15 C15        119.9795 150.4748 153.0793 C.2            1 RES1               0.0000
     16 C16        124.2208 153.2436 156.7212 C.ar           1 RES1               0.0000
     17 O17        119.1742 149.5482 153.0806 O.2            1 RES1               0.0000
     18 H18        122.2621 154.6466 152.3706 H              1 RES1               0.0000
     19 H19        123.3028 153.4259 151.6161 H              1 RES1               0.0000
     20 H20        124.6115 153.1314 153.3735 H              1 RES1               0.0000
     21 H21        121.0661 152.6052 155.7171 H              1 RES1               0.0000
     22 H22        121.5892 149.2983 152.6386 H              1 RES1               0.0000
     23 H23        118.6393 151.9333 153.5623 H              1 RES1               0.0000
     24 H24        121.6323 154.2837 150.0066 H              1 RES1               0.0000
     25 H25        121.3533 152.5725 150.3204 H              1 RES1               0.0000
     26 H26        120.3188 153.7859 151.0705 H              1 RES1               0.0000
     27 H27        125.9063 153.4834 155.4287 H              1 RES1               0.0000
     28 H28        122.3747 152.9581 157.7595 H              1 RES1               0.0000
     29 H29        124.7959 153.3992 157.6280 H              1 RES1               0.0000
@<TRIPOS>BOND
    1    1    2 1     
    2    1    3 1     
    3    1    4 1     
    4    1    5 1     
    5    2    6 ar    
    6    2    7 ar    
    7    3    8 1     
    8    3    9 2     
    9    4   10 1     
   10    4   11 2     
   11    5   12 1     
   12    5   18 1     
   13    5   19 1     
   14    6   13 ar    
   15    6   20 1     
   16    7   14 ar    
   17    7   21 1     
   18    8   15 1     
   19    8   22 1     
   20   10   15 1     
   21   10   23 1     
   22   12   24 1     
   23   12   25 1     
   24   12   26 1     
   25   13   16 ar    
   26   13   27 1     
   27   14   16 ar    
   28   14   28 1     
   29   15   17 2     
   30   16   29 1     
@<TRIPOS>SUBSTRUCTURE
      1 RES1           1
@<TRIPOS>SET
DONOR_HYDROGENS      STATIC     ATOMS    <user>   **** ""
2 22 23
ATOM$RED        STATIC     ATOMS    COLORGROUP SYSTEM
2 22 23
@<TRIPOS>COMMENT
> <Gold.Version>
2022.3.0

> <Gold.Id.Protein>
unknown|7rmi_cavity_clean|pdb

> <Gold.Protein.RotatedTorsions>
[ 3787 3780 3778 3775 ] final  -58.03 input   60.01 | X-H torsion
[ 7241 7225 7224 7223 ] final  127.20 input   60.01 | X-H torsion
[ 7244 7226 7227 7228 ] final  121.77 input   59.90 | X-H torsion
[ 7275 7267 7268 7269 ] final -106.27 input   86.30 | X-H torsion
[ 8107 8100 8094 8093 ] final   59.99 input   59.99 | X-H torsion
[ 7259 7254 7253 7250 ] final -163.54 input   59.97 | X-H torsion
[ 7633 7625 7626 7627 ] final -129.83 input   88.29 | X-H torsion
[ 14310 7229 7228 7227 ] final  -23.79 input    0.00 | X-H torsion
[ 14346 7628 7627 7626 ] final  161.71 input    0.00 | X-H torsion

> <Gold.Protein.ActiveResidues>
 THR47   ARG48   ARG49   LYS280  SER281  LEU284  LEU286  CYS294  ASN295  VAL296 
 GLY306  VAL307  LEU308  VAL320  GLY324  MET325  ALA326  VAL327  TRP339  ASN340 
 ASP48   PRO49   LEU50  

> <Gold.Protein.RotatedAtoms>
  129.7134  152.1674  150.4900 H   0  0  0  0  0  0  0  0  0  0  0  0  # atno 3787 bound_to 3780
  134.3140  165.8635  171.1127 H   0  0  0  0  0  0  0  0  0  0  0  0  # atno 7241 bound_to 7225
  133.5572  164.6321  171.9238 H   0  0  0  0  0  0  0  0  0  0  0  0  # atno 7242 bound_to 7225
  134.5341  164.2943  170.6280 H   0  0  0  0  0  0  0  0  0  0  0  0  # atno 7243 bound_to 7225
  123.7527  133.4271   86.3456 H   0  0  0  0  0  0  0  0  0  0  0  0  # atno 7244 bound_to 7226
  125.2502  162.6712  167.4722 H   0  0  0  0  0  0  0  0  0  0  0  0  # atno 7259 bound_to 7254
  123.3653  157.9195  168.0237 H   0  0  0  0  0  0  0  0  0  0  0  0  # atno 7275 bound_to 7267
  122.8371  123.4739  129.5306 H   0  0  0  0  0  0  0  0  0  0  0  0  # atno 7633 bound_to 7625
  127.5370  161.3050  155.7080 H   0  0  0  0  0  0  0  0  0  0  0  0  # atno 8107 bound_to 8100
  129.6762  151.3205  149.1011 LP  0  0  0  0  0  0  0  0  0  0  0  0  # atno 14301 bound_to 3780
  128.5546  152.4719  149.3890 LP  0  0  0  0  0  0  0  0  0  0  0  0  # atno 14302 bound_to 3780
  124.0779  134.9883   87.0700 LP  0  0  0  0  0  0  0  0  0  0  0  0  # atno 14309 bound_to 7226
  123.7411  134.4810   89.1387 LP  0  0  0  0  0  0  0  0  0  0  0  0  # atno 14310 bound_to 7229
  122.6880  135.2051   90.3077 LP  0  0  0  0  0  0  0  0  0  0  0  0  # atno 14311 bound_to 7229
  126.1565  160.7598  155.1919 LP  0  0  0  0  0  0  0  0  0  0  0  0  # atno 14336 bound_to 8100
  125.3681  161.4832  168.5786 LP  0  0  0  0  0  0  0  0  0  0  0  0  # atno 14341 bound_to 7254
  126.6164  161.7921  167.5723 LP  0  0  0  0  0  0  0  0  0  0  0  0  # atno 14342 bound_to 7254
  123.1654  125.0952  130.0899 LP  0  0  0  0  0  0  0  0  0  0  0  0  # atno 14345 bound_to 7625
  124.0624  123.6367  134.3758 LP  0  0  0  0  0  0  0  0  0  0  0  0  # atno 14346 bound_to 7628
  123.6352  122.3936  133.2479 LP  0  0  0  0  0  0  0  0  0  0  0  0  # atno 14347 bound_to 7628

> <Gold.Score>
     Fitness  S(hb_ext) S(vdw_ext)  S(hb_int)    S(int)      intcor
     36.41       0.00      27.35       0.00      -1.20      -0.76

> <Gold.Goldscore.Fitness>
36.4070

> <Gold.Goldscore.Internal.Vdw>
-1.4615

> <Gold.Goldscore.Internal.Torsion>
-0.4940

> <Gold.Goldscore.External.Vdw>
27.3483

> <Gold.Goldscore.Internal.HBond>
0.0000

> <Gold.Goldscore.External.HBond>
0.0000

> <Gold.Goldscore.Internal.Correction>
-0.7585

> <Gold.Goldscore.Internal.Vdw.Weighted>
-1.4615

> <Gold.Goldscore.Internal.Torsion.Weighted>
-0.4940

> <Gold.Goldscore.External.Vdw.Weighted>
37.6039

> <Gold.Goldscore.Internal.HBond.Weighted>
0.0000

> <Gold.Goldscore.External.HBond.Weighted>
0.0000

> <Gold.Goldscore.Internal.Correction.Weighted>
-0.7585

> <Gold.Rescore>
     Score     S(PLP)   S(hbond)     S(cho)   S(metal)  DE(clash)   DE(tors)     intcor
     26.31     -28.04       0.00       0.00       0.00       0.91       0.41       ----

> <Gold.PLP.Fitness>
26.3116

> <Gold.PLP.PLP>
-28.0370

> <Gold.PLP.part.hbond>
-2.0000

> <Gold.PLP.part.metal>
0.0000

> <Gold.PLP.part.buried>
13.5214

> <Gold.PLP.part.nonpolar>
-40.6922

> <Gold.PLP.part.repulsive>
0.4207

> <Gold.PLP.ligand.clash>
0.9116

> <Gold.PLP.ligand.torsion>
0.4069

> <Gold.PLP.Chemscore.Hbond>
0.0000

> <Gold.PLP.Chemscore.CHOScore>
0.0000

> <Gold.PLP.Chemscore.Metal>
0.0000

> <Gold.PLP.Chemscore.Internal.Correction>
   9.000000E+99

