#       Name:                CT1002167954
#       Creating user name   hitesit
#       Creation time:       Sun Apr 16 23:00:47 2023


#       File generated by GOLD software.
#

@<TRIPOS>MOLECULE
CT1002167954|ligand_prepared|mol2|1|dock2
    29    30     1
SMALL
NO_CHARGES


@<TRIPOS>ATOM
      1 C1         132.5886 144.9699 126.2337 C.3            1 RES1               0.0000
      2 C2         132.9854 144.0631 127.4165 C.ar           1 RES1               0.0000
      3 C3         133.7547 145.9308 126.0206 C.2            1 RES1               0.0000
      4 C4         132.3243 144.0411 125.0539 C.2            1 RES1               0.0000
      5 C5         131.3080 145.7997 126.4847 C.3            1 RES1               0.0000
      6 C6         133.6725 142.8729 127.1975 C.ar           1 RES1               0.0000
      7 C7         132.6740 144.4040 128.7301 C.ar           1 RES1               0.0000
      8 N8         134.5560 145.7214 124.9372 N.am           1 RES1               0.0000
      9 O9         133.9910 146.8345 126.8130 O.2            1 RES1               0.0000
     10 N10        133.1645 144.1194 123.9742 N.am           1 RES1               0.0000
     11 O11        131.4061 143.2304 125.0564 O.2            1 RES1               0.0000
     12 C12        130.7521 146.4627 125.2343 C.3            1 RES1               0.0000
     13 C13        134.0379 142.0546 128.2535 C.ar           1 RES1               0.0000
     14 C14        133.0402 143.5841 129.7847 C.ar           1 RES1               0.0000
     15 C15        134.2867 144.8960 123.8751 C.2            1 RES1               0.0000
     16 C16        133.7224 142.4098 129.5477 C.ar           1 RES1               0.0000
     17 O17        135.0229 144.8714 122.8930 O.2            1 RES1               0.0000
     18 H18        130.5384 145.1421 126.9076 H              1 RES1               0.0000
     19 H19        131.5302 146.5763 127.2270 H              1 RES1               0.0000
     20 H20        133.9272 142.5756 126.1857 H              1 RES1               0.0000
     21 H21        132.1369 145.3227 128.9402 H              1 RES1               0.0000
     22 H22        135.4370 146.2251 124.9145 H              1 RES1               0.0000
     23 H23        132.9317 143.5459 123.1698 H              1 RES1               0.0000
     24 H24        129.8544 147.0319 125.4662 H              1 RES1               0.0000
     25 H25        131.4824 147.1432 124.8014 H              1 RES1               0.0000
     26 H26        130.4965 145.7175 124.4838 H              1 RES1               0.0000
     27 H27        134.5735 141.1307 128.0616 H              1 RES1               0.0000
     28 H28        132.7893 143.8673 130.8016 H              1 RES1               0.0000
     29 H29        134.0091 141.7688 130.3748 H              1 RES1               0.0000
@<TRIPOS>BOND
    1    1    2 1     
    2    1    3 1     
    3    1    4 1     
    4    1    5 1     
    5    2    6 ar    
    6    2    7 ar    
    7    3    8 1     
    8    3    9 2     
    9    4   10 1     
   10    4   11 2     
   11    5   12 1     
   12    5   18 1     
   13    5   19 1     
   14    6   13 ar    
   15    6   20 1     
   16    7   14 ar    
   17    7   21 1     
   18    8   15 1     
   19    8   22 1     
   20   10   15 1     
   21   10   23 1     
   22   12   24 1     
   23   12   25 1     
   24   12   26 1     
   25   13   16 ar    
   26   13   27 1     
   27   14   16 ar    
   28   14   28 1     
   29   15   17 2     
   30   16   29 1     
@<TRIPOS>SUBSTRUCTURE
      1 RES1           1
@<TRIPOS>SET
DONOR_HYDROGENS      STATIC     ATOMS    <user>   **** ""
2 22 23
ATOM$RED        STATIC     ATOMS    COLORGROUP SYSTEM
2 22 23
@<TRIPOS>COMMENT
> <Gold.Version>
2022.3.0

> <Gold.Id.Protein>
unknown|7rmi_cavity_clean|pdb

> <Gold.Protein.RotatedTorsions>
[ 3787 3780 3778 3775 ] final   54.56 input   60.01 | X-H torsion
[ 7241 7225 7224 7223 ] final  -94.25 input   60.01 | X-H torsion
[ 7244 7226 7227 7228 ] final -142.84 input   59.90 | X-H torsion
[ 7275 7267 7268 7269 ] final   -5.89 input   86.30 | X-H torsion
[ 8107 8100 8094 8093 ] final -120.01 input   59.99 | X-H torsion
[ 7259 7254 7253 7250 ] final   65.87 input   59.97 | X-H torsion
[ 7633 7625 7626 7627 ] final    2.16 input   88.29 | X-H torsion
[ 14310 7229 7228 7227 ] final  -65.88 input    0.00 | X-H torsion
[ 14346 7628 7627 7626 ] final  164.20 input    0.00 | X-H torsion

> <Gold.Protein.ActiveResidues>
 THR47   ARG48   ARG49   LYS280  SER281  LEU284  LEU286  CYS294  ASN295  VAL296 
 GLY306  VAL307  LEU308  VAL320  GLY324  MET325  ALA326  VAL327  TRP339  ASN340 
 ASP48   PRO49   LEU50  

> <Gold.Protein.RotatedAtoms>
  128.5709  152.5292  149.4949 H   0  0  0  0  0  0  0  0  0  0  0  0  # atno 3787 bound_to 3780
  133.6276  164.3598  171.7981 H   0  0  0  0  0  0  0  0  0  0  0  0  # atno 7241 bound_to 7225
  134.6523  164.5535  170.5099 H   0  0  0  0  0  0  0  0  0  0  0  0  # atno 7242 bound_to 7225
  134.1254  165.8776  171.3567 H   0  0  0  0  0  0  0  0  0  0  0  0  # atno 7243 bound_to 7225
  123.7582  134.6928   85.9740 H   0  0  0  0  0  0  0  0  0  0  0  0  # atno 7244 bound_to 7226
  125.5223  161.4037  168.5749 H   0  0  0  0  0  0  0  0  0  0  0  0  # atno 7259 bound_to 7254
  124.7094  157.7533  168.2100 H   0  0  0  0  0  0  0  0  0  0  0  0  # atno 7275 bound_to 7267
  122.6458  124.7778  130.4561 H   0  0  0  0  0  0  0  0  0  0  0  0  # atno 7633 bound_to 7625
  126.2295  159.9660  155.6453 H   0  0  0  0  0  0  0  0  0  0  0  0  # atno 8107 bound_to 8100
  129.7944  152.0793  150.4688 LP  0  0  0  0  0  0  0  0  0  0  0  0  # atno 14301 bound_to 3780
  129.5868  151.3488  149.0231 LP  0  0  0  0  0  0  0  0  0  0  0  0  # atno 14302 bound_to 3780
  124.0726  133.7685   87.4281 LP  0  0  0  0  0  0  0  0  0  0  0  0  # atno 14309 bound_to 7226
  123.5296  134.0570   89.5417 LP  0  0  0  0  0  0  0  0  0  0  0  0  # atno 14310 bound_to 7229
  122.8995  135.6291   89.9047 LP  0  0  0  0  0  0  0  0  0  0  0  0  # atno 14311 bound_to 7229
  127.4186  160.6879  156.3760 LP  0  0  0  0  0  0  0  0  0  0  0  0  # atno 14336 bound_to 8100
  126.5886  161.9217  167.4596 LP  0  0  0  0  0  0  0  0  0  0  0  0  # atno 14341 bound_to 7254
  125.1220  162.6293  167.5816 LP  0  0  0  0  0  0  0  0  0  0  0  0  # atno 14342 bound_to 7254
  123.3531  123.8159  129.1819 LP  0  0  0  0  0  0  0  0  0  0  0  0  # atno 14345 bound_to 7625
  124.0262  123.6470  134.3769 LP  0  0  0  0  0  0  0  0  0  0  0  0  # atno 14346 bound_to 7628
  123.6714  122.3833  133.2467 LP  0  0  0  0  0  0  0  0  0  0  0  0  # atno 14347 bound_to 7628

> <Gold.Score>
     Fitness  S(hb_ext) S(vdw_ext)  S(hb_int)    S(int)      intcor
     31.07       0.00      22.90       0.00      -0.42      -0.77

> <Gold.Goldscore.Fitness>
31.0665

> <Gold.Goldscore.Internal.Vdw>
-0.5922

> <Gold.Goldscore.Internal.Torsion>
-0.5964

> <Gold.Goldscore.External.Vdw>
22.8993

> <Gold.Goldscore.Internal.HBond>
0.0000

> <Gold.Goldscore.External.HBond>
0.0000

> <Gold.Goldscore.Internal.Correction>
-0.7686

> <Gold.Goldscore.Internal.Vdw.Weighted>
-0.5922

> <Gold.Goldscore.Internal.Torsion.Weighted>
-0.5964

> <Gold.Goldscore.External.Vdw.Weighted>
31.4865

> <Gold.Goldscore.Internal.HBond.Weighted>
0.0000

> <Gold.Goldscore.External.HBond.Weighted>
0.0000

> <Gold.Goldscore.Internal.Correction.Weighted>
-0.7686

> <Gold.Rescore>
     Score     S(PLP)   S(hbond)     S(cho)   S(metal)  DE(clash)   DE(tors)     intcor
     29.45     -31.86       0.00       0.00       0.00       0.87       0.77       ----

> <Gold.PLP.Fitness>
29.4474

> <Gold.PLP.PLP>
-31.8589

> <Gold.PLP.part.hbond>
0.0000

> <Gold.PLP.part.metal>
0.0000

> <Gold.PLP.part.buried>
-0.1708

> <Gold.PLP.part.nonpolar>
-32.2281

> <Gold.PLP.part.repulsive>
0.5671

> <Gold.PLP.ligand.clash>
0.8729

> <Gold.PLP.ligand.torsion>
0.7693

> <Gold.PLP.Chemscore.Hbond>
0.0000

> <Gold.PLP.Chemscore.CHOScore>
0.0000

> <Gold.PLP.Chemscore.Metal>
0.0000

> <Gold.PLP.Chemscore.Internal.Correction>
   9.000000E+99

