#       Name:                CT1002167954
#       Creating user name   hitesit
#       Creation time:       Sun Apr 16 23:04:53 2023


#       File generated by GOLD software.
#

@<TRIPOS>MOLECULE
CT1002167954|ligand_prepared|mol2|1|dock9
    29    30     1
SMALL
NO_CHARGES


@<TRIPOS>ATOM
      1 C1         134.3591 143.7560 129.5571 C.3            1 RES1               0.0000
      2 C2         133.5263 143.8535 128.2626 C.ar           1 RES1               0.0000
      3 C3         134.3313 145.1441 130.1900 C.2            1 RES1               0.0000
      4 C4         133.7033 142.6721 130.4055 C.2            1 RES1               0.0000
      5 C5         135.8334 143.3524 129.3227 C.3            1 RES1               0.0000
      6 C6         132.2765 144.4656 128.2684 C.ar           1 RES1               0.0000
      7 C7         133.9950 143.3394 127.0565 C.ar           1 RES1               0.0000
      8 N8         133.5567 145.3174 131.2991 N.am           1 RES1               0.0000
      9 O9         134.9484 146.0821 129.7005 O.2            1 RES1               0.0000
     10 N10        133.1245 143.0462 131.5900 N.am           1 RES1               0.0000
     11 O11        133.6679 141.5002 130.0512 O.2            1 RES1               0.0000
     12 C12        136.7020 143.4534 130.5667 C.3            1 RES1               0.0000
     13 C13        131.5237 144.5629 127.1099 C.ar           1 RES1               0.0000
     14 C14        133.2404 143.4376 125.8991 C.ar           1 RES1               0.0000
     15 C15        132.9946 144.3245 132.0605 C.2            1 RES1               0.0000
     16 C16        132.0052 144.0495 125.9246 C.ar           1 RES1               0.0000
     17 O17        132.4126 144.5869 133.1091 O.2            1 RES1               0.0000
     18 H18        135.8626 142.3195 128.9546 H              1 RES1               0.0000
     19 H19        136.2566 143.9981 128.5433 H              1 RES1               0.0000
     20 H20        131.8801 144.8734 129.1923 H              1 RES1               0.0000
     21 H21        134.9635 142.8529 127.0130 H              1 RES1               0.0000
     22 H22        133.3790 146.2738 131.5890 H              1 RES1               0.0000
     23 H23        132.7566 142.3029 132.1752 H              1 RES1               0.0000
     24 H24        137.7261 143.1592 130.3470 H              1 RES1               0.0000
     25 H25        136.7162 144.4733 130.9455 H              1 RES1               0.0000
     26 H26        136.3245 142.8046 131.3543 H              1 RES1               0.0000
     27 H27        130.5516 145.0442 127.1355 H              1 RES1               0.0000
     28 H28        133.6230 143.0315 124.9686 H              1 RES1               0.0000
     29 H29        131.4154 144.1261 125.0171 H              1 RES1               0.0000
@<TRIPOS>BOND
    1    1    2 1     
    2    1    3 1     
    3    1    4 1     
    4    1    5 1     
    5    2    6 ar    
    6    2    7 ar    
    7    3    8 1     
    8    3    9 2     
    9    4   10 1     
   10    4   11 2     
   11    5   12 1     
   12    5   18 1     
   13    5   19 1     
   14    6   13 ar    
   15    6   20 1     
   16    7   14 ar    
   17    7   21 1     
   18    8   15 1     
   19    8   22 1     
   20   10   15 1     
   21   10   23 1     
   22   12   24 1     
   23   12   25 1     
   24   12   26 1     
   25   13   16 ar    
   26   13   27 1     
   27   14   16 ar    
   28   14   28 1     
   29   15   17 2     
   30   16   29 1     
@<TRIPOS>SUBSTRUCTURE
      1 RES1           1
@<TRIPOS>SET
DONOR_HYDROGENS      STATIC     ATOMS    <user>   **** ""
2 22 23
ATOM$RED        STATIC     ATOMS    COLORGROUP SYSTEM
2 22 23
@<TRIPOS>COMMENT
> <Gold.Version>
2022.3.0

> <Gold.Id.Protein>
unknown|7rmi_cavity_clean|pdb

> <Gold.Protein.RotatedTorsions>
[ 3787 3780 3778 3775 ] final -158.76 input   60.01 | X-H torsion
[ 7241 7225 7224 7223 ] final  136.18 input   60.01 | X-H torsion
[ 7244 7226 7227 7228 ] final -172.68 input   59.90 | X-H torsion
[ 7275 7267 7268 7269 ] final   51.69 input   86.30 | X-H torsion
[ 8107 8100 8094 8093 ] final -120.01 input   59.99 | X-H torsion
[ 7259 7254 7253 7250 ] final   66.64 input   59.97 | X-H torsion
[ 7633 7625 7626 7627 ] final -178.87 input   88.29 | X-H torsion
[ 14310 7229 7228 7227 ] final  131.78 input    0.00 | X-H torsion
[ 14346 7628 7627 7626 ] final  -61.37 input    0.00 | X-H torsion

> <Gold.Protein.ActiveResidues>
 THR47   ARG48   ARG49   LYS280  SER281  LEU284  LEU286  CYS294  ASN295  VAL296 
 GLY306  VAL307  LEU308  VAL320  GLY324  MET325  ALA326  VAL327  TRP339  ASN340 
 ASP48   PRO49   LEU50  

> <Gold.Protein.RotatedAtoms>
  129.8750  151.3066  149.3445 H   0  0  0  0  0  0  0  0  0  0  0  0  # atno 3787 bound_to 3780
  134.2239  165.8826  171.2307 H   0  0  0  0  0  0  0  0  0  0  0  0  # atno 7241 bound_to 7225
  133.5841  164.4944  171.8715 H   0  0  0  0  0  0  0  0  0  0  0  0  # atno 7242 bound_to 7225
  134.5974  164.4130  170.5622 H   0  0  0  0  0  0  0  0  0  0  0  0  # atno 7243 bound_to 7225
  123.6947  134.2548   85.8517 H   0  0  0  0  0  0  0  0  0  0  0  0  # atno 7244 bound_to 7226
  125.5111  161.4091  168.5758 H   0  0  0  0  0  0  0  0  0  0  0  0  # atno 7259 bound_to 7254
  125.0240  158.2744  167.6067 H   0  0  0  0  0  0  0  0  0  0  0  0  # atno 7275 bound_to 7267
  123.3691  123.8191  129.1658 H   0  0  0  0  0  0  0  0  0  0  0  0  # atno 7633 bound_to 7625
  126.2295  159.9660  155.6453 H   0  0  0  0  0  0  0  0  0  0  0  0  # atno 8107 bound_to 8100
  128.5900  152.2833  149.1381 LP  0  0  0  0  0  0  0  0  0  0  0  0  # atno 14301 bound_to 3780
  129.4782  152.3757  150.5053 LP  0  0  0  0  0  0  0  0  0  0  0  0  # atno 14302 bound_to 3780
  124.1339  134.1906   87.5459 LP  0  0  0  0  0  0  0  0  0  0  0  0  # atno 14309 bound_to 7226
  122.7818  135.4918   90.0998 LP  0  0  0  0  0  0  0  0  0  0  0  0  # atno 14310 bound_to 7229
  123.6473  134.1943   89.3466 LP  0  0  0  0  0  0  0  0  0  0  0  0  # atno 14311 bound_to 7229
  127.4186  160.6879  156.3760 LP  0  0  0  0  0  0  0  0  0  0  0  0  # atno 14336 bound_to 8100
  126.5916  161.9122  167.4673 LP  0  0  0  0  0  0  0  0  0  0  0  0  # atno 14341 bound_to 7254
  125.1303  162.6333  167.5730 LP  0  0  0  0  0  0  0  0  0  0  0  0  # atno 14342 bound_to 7254
  122.6434  124.7565  130.4479 LP  0  0  0  0  0  0  0  0  0  0  0  0  # atno 14345 bound_to 7625
  123.1271  122.7319  133.4259 LP  0  0  0  0  0  0  0  0  0  0  0  0  # atno 14346 bound_to 7628
  124.5705  123.2985  134.1977 LP  0  0  0  0  0  0  0  0  0  0  0  0  # atno 14347 bound_to 7628

> <Gold.Score>
     Fitness  S(hb_ext) S(vdw_ext)  S(hb_int)    S(int)      intcor
     29.74       0.00      21.70       0.00      -0.10      -0.76

> <Gold.Goldscore.Fitness>
29.7376

> <Gold.Goldscore.Internal.Vdw>
-0.3744

> <Gold.Goldscore.Internal.Torsion>
-0.4839

> <Gold.Goldscore.External.Vdw>
21.6999

> <Gold.Goldscore.Internal.HBond>
0.0000

> <Gold.Goldscore.External.HBond>
0.0000

> <Gold.Goldscore.Internal.Correction>
-0.7585

> <Gold.Goldscore.Internal.Vdw.Weighted>
-0.3744

> <Gold.Goldscore.Internal.Torsion.Weighted>
-0.4839

> <Gold.Goldscore.External.Vdw.Weighted>
29.8374

> <Gold.Goldscore.Internal.HBond.Weighted>
0.0000

> <Gold.Goldscore.External.HBond.Weighted>
0.0000

> <Gold.Goldscore.Internal.Correction.Weighted>
-0.7585

> <Gold.Rescore>
     Score     S(PLP)   S(hbond)     S(cho)   S(metal)  DE(clash)   DE(tors)     intcor
     32.13     -32.16       0.00       0.00       0.00       0.00       0.01       ----

> <Gold.PLP.Fitness>
32.1316

> <Gold.PLP.PLP>
-32.1559

> <Gold.PLP.part.hbond>
0.0000

> <Gold.PLP.part.metal>
0.0000

> <Gold.PLP.part.buried>
-2.6314

> <Gold.PLP.part.nonpolar>
-30.2176

> <Gold.PLP.part.repulsive>
0.1108

> <Gold.PLP.ligand.clash>
0.0000

> <Gold.PLP.ligand.torsion>
0.0122

> <Gold.PLP.Chemscore.Hbond>
0.0000

> <Gold.PLP.Chemscore.CHOScore>
0.0000

> <Gold.PLP.Chemscore.Metal>
0.0000

> <Gold.PLP.Chemscore.Internal.Correction>
   9.000000E+99

