@<TRIPOS>MOLECULE
B:EXI800
    47    48     1     0     1
SMALL
NO_CHARGES
****
Generated from the CSD

@<TRIPOS>ATOM
     1 N01    118.2690 244.1260 322.7560   N.ar      1 EXI800   0.0000
     2 C02    119.5250 244.2980 322.3190   C.ar      1 EXI800   0.0000
     3 N02    120.5190 243.5230 322.8150   N.pl3     1 EXI800   0.0000
     4 C03    119.7990 245.2670 321.3610   C.ar      1 EXI800   0.0000
     5 C04    118.7720 246.0470 320.8530   C.ar      1 EXI800   0.0000
     6 C05    117.4920 245.8420 321.3110   C.ar      1 EXI800   0.0000
     7 C06    117.2580 244.8820 322.2900   C.ar      1 EXI800   0.0000
     8 C07    119.0400 247.0960 319.7920   C.3       1 EXI800   0.0000
     9 C08    115.8530 244.6240 322.7750   C.3       1 EXI800   0.0000
    10 C09    115.4420 243.5070 321.8160   C.3       1 EXI800   0.0000
    11 N11    112.3980 241.5440 320.8700   N.ar      1 EXI800   0.0000
    12 C12    113.6170 242.0920 320.8690   C.ar      1 EXI800   0.0000
    13 C13    114.0390 242.9430 321.8980   C.ar      1 EXI800   0.0000
    14 C14    113.1780 243.2270 322.9500   C.ar      1 EXI800   0.0000
    15 C15    111.9100 242.6520 322.9150   C.ar      1 EXI800   0.0000
    16 C16    111.5440 241.8090 321.8630   C.ar      1 EXI800   0.0000
    17 C17    110.2240 241.7750 324.4560   C.3       1 EXI800   0.0000
    18 N17    110.9970 242.8950 323.9430   N.pl3     1 EXI800   0.0000
    19 C18    110.8060 244.2560 324.4320   C.3       1 EXI800   0.0000
    20 C19    110.6330 244.1380 325.9420   C.3       1 EXI800   0.0000
    21 N20    111.8480 243.7060 326.6110   N.3       1 EXI800   0.0000
    22 C21    111.9340 243.7830 328.0600   C.3       1 EXI800   0.0000
    23 H1     109.9183 244.6987 323.9826   H         1 EXI800   0.0000
    24 H2     111.6755 244.8682 324.1972   H         1 EXI800   0.0000
    25 H3     116.6663 246.4277 320.9097   H         1 EXI800   0.0000
    26 H4     116.1285 242.6778 321.9802   H         1 EXI800   0.0000
    27 H5     115.5721 243.8912 320.8054   H         1 EXI800   0.0000
    28 H6     121.4716 243.6486 322.4880   H         1 EXI800   0.0000
    29 H7     120.3112 242.8166 323.5137   H         1 EXI800   0.0000
    30 H8     119.4569 246.6185 318.9065   H         1 EXI800   0.0000
    31 H9     118.1077 247.5944 319.5306   H         1 EXI800   0.0000
    32 H10    119.7479 247.8287 320.1766   H         1 EXI800   0.0000
    33 H11    112.6058 244.2703 326.2400   H         1 EXI800   0.0000
    34 H12    109.8455 243.4144 326.1474   H         1 EXI800   0.0000
    35 H13    110.3442 245.1108 326.3371   H         1 EXI800   0.0000
    36 H14    120.8194 245.4132 321.0099   H         1 EXI800   0.0000
    37 H15    110.8998 241.0195 324.8539   H         1 EXI800   0.0000
    38 H16    109.5621 242.1231 325.2476   H         1 EXI800   0.0000
    39 H17    109.6313 241.3438 323.6506   H         1 EXI800   0.0000
    40 H18    113.4827 243.8745 323.7709   H         1 EXI800   0.0000
    41 H19    115.2200 245.5034 322.6661   H         1 EXI800   0.0000
    42 H20    115.8380 244.2921 323.8121   H         1 EXI800   0.0000
    43 H21    111.1514 243.1690 328.5032   H         1 EXI800   0.0000
    44 H22    112.9079 243.4205 328.3856   H         1 EXI800   0.0000
    45 H23    111.8071 244.8172 328.3767   H         1 EXI800   0.0000
    46 H24    114.2983 241.8715 320.0485   H         1 EXI800   0.0000
    47 H25    110.5508 241.3624 321.8520   H         1 EXI800   0.0000
@<TRIPOS>BOND
     1     1     2   ar
     2     2     3    1
     3     2     4   ar
     4     4     5   ar
     5     5     6   ar
     6     1     7   ar
     7     6     7   ar
     8     5     8    1
     9     7     9    1
    10     9    10    1
    11    11    12   ar
    12    10    13    1
    13    12    13   ar
    14    13    14   ar
    15    14    15   ar
    16    11    16   ar
    17    15    16   ar
    18    15    18    1
    19    17    18    1
    20    18    19    1
    21    19    20    1
    22    20    21    1
    23    21    22    1
    24    19    23    1
    25    19    24    1
    26     6    25    1
    27    10    26    1
    28    10    27    1
    29     3    28    1
    30     3    29    1
    31     8    30    1
    32     8    31    1
    33     8    32    1
    34    21    33    1
    35    20    34    1
    36    20    35    1
    37     4    36    1
    38    17    37    1
    39    17    38    1
    40    17    39    1
    41    14    40    1
    42     9    41    1
    43     9    42    1
    44    22    43    1
    45    22    44    1
    46    22    45    1
    47    12    46    1
    48    16    47    1
@<TRIPOS>SUBSTRUCTURE
     1 EXI800      1 GROUP             0 B     EXI     0  
@<TRIPOS>SET
CCDC_LIGAND STATIC ATOMS
47 1 2 3 4 5 6 7 8 9 \
10 11 12 13 14 15 16 17 18 19 \
20 21 22 23 24 25 26 27 28 29 \
30 31 32 33 34 35 36 37 38 39 \
40 41 42 43 44 45 46 47 
