@<TRIPOS>MOLECULE
A:EXI800
    47    48     1     0     1
SMALL
NO_CHARGES
****
Generated from the CSD

@<TRIPOS>ATOM
     1 N01    118.1090 244.6310 357.3910   N.ar      1 EXI800   0.0000
     2 C02    116.8700 244.2630 357.7680   C.ar      1 EXI800   0.0000
     3 N02    116.3260 243.1400 357.2420   N.pl3     1 EXI800   0.0000
     4 C03    116.1710 245.0250 358.6940   C.ar      1 EXI800   0.0000
     5 C04    116.7570 246.1630 359.2180   C.ar      1 EXI800   0.0000
     6 C05    118.0310 246.5210 358.8120   C.ar      1 EXI800   0.0000
     7 C06    118.6950 245.7370 357.8750   C.ar      1 EXI800   0.0000
     8 C07    116.0130 247.0120 360.2180   C.3       1 EXI800   0.0000
     9 C08    120.1020 246.0700 357.4420   C.3       1 EXI800   0.0000
    10 C09    120.9210 245.2150 358.4060   C.3       1 EXI800   0.0000
    11 N11    124.5350 244.5380 359.1250   N.ar      1 EXI800   0.0000
    12 C12    123.2000 244.5760 359.2230   C.ar      1 EXI800   0.0000
    13 C13    122.4280 245.2130 358.2480   C.ar      1 EXI800   0.0000
    14 C14    123.0550 245.8160 357.1650   C.ar      1 EXI800   0.0000
    15 C15    124.4440 245.7710 357.0850   C.ar      1 EXI800   0.0000
    16 C16    125.1610 245.1140 358.0890   C.ar      1 EXI800   0.0000
    17 C17    126.3650 245.7680 355.5530   C.3       1 EXI800   0.0000
    18 N17    125.1170 246.3650 356.0010   N.pl3     1 EXI800   0.0000
    19 C18    124.5950 247.5770 355.3700   C.3       1 EXI800   0.0000
    20 C19    125.0780 247.5740 353.9210   C.3       1 EXI800   0.0000
    21 N20    124.0300 247.2160 352.9800   N.3       1 EXI800   0.0000
    22 C21    124.3130 246.4000 351.8100   C.3       1 EXI800   0.0000
    23 H1     126.1844 244.7404 355.2409   H         1 EXI800   0.0000
    24 H2     126.7594 246.3384 354.7133   H         1 EXI800   0.0000
    25 H3     127.0858 245.7781 356.3692   H         1 EXI800   0.0000
    26 H4     115.7759 246.4140 361.0967   H         1 EXI800   0.0000
    27 H5     116.6347 247.8568 360.5107   H         1 EXI800   0.0000
    28 H6     115.0911 247.3782 359.7686   H         1 EXI800   0.0000
    29 H7     115.1701 244.7294 359.0051   H         1 EXI800   0.0000
    30 H8     124.7056 245.4349 352.1269   H         1 EXI800   0.0000
    31 H9     123.3963 246.2501 351.2416   H         1 EXI800   0.0000
    32 H10    125.0491 246.9039 351.1854   H         1 EXI800   0.0000
    33 H11    118.5091 247.4090 359.2229   H         1 EXI800   0.0000
    34 H12    123.6430 248.0886 352.6351   H         1 EXI800   0.0000
    35 H13    115.3928 242.8511 357.5175   H         1 EXI800   0.0000
    36 H14    116.8514 242.5872 356.5723   H         1 EXI800   0.0000
    37 H15    122.7098 244.1044 360.0734   H         1 EXI800   0.0000
    38 H16    126.2474 245.0693 358.0285   H         1 EXI800   0.0000
    39 H17    122.4708 246.3146 356.3930   H         1 EXI800   0.0000
    40 H18    125.8910 246.8557 353.8265   H         1 EXI800   0.0000
    41 H19    125.4428 248.5698 353.6735   H         1 EXI800   0.0000
    42 H20    124.9709 248.4587 355.8870   H         1 EXI800   0.0000
    43 H21    123.5064 247.5747 355.4007   H         1 EXI800   0.0000
    44 H22    120.5820 244.1861 358.2948   H         1 EXI800   0.0000
    45 H23    120.7013 245.5626 359.4144   H         1 EXI800   0.0000
    46 H24    120.3175 247.1301 357.5675   H         1 EXI800   0.0000
    47 H25    120.2788 245.7837 356.4063   H         1 EXI800   0.0000
@<TRIPOS>BOND
     1     1     2   ar
     2     2     3    1
     3     2     4   ar
     4     4     5   ar
     5     5     6   ar
     6     1     7   ar
     7     6     7   ar
     8     5     8    1
     9     7     9    1
    10     9    10    1
    11    11    12   ar
    12    10    13    1
    13    12    13   ar
    14    13    14   ar
    15    14    15   ar
    16    11    16   ar
    17    15    16   ar
    18    15    18    1
    19    17    18    1
    20    18    19    1
    21    19    20    1
    22    20    21    1
    23    21    22    1
    24    17    23    1
    25    17    24    1
    26    17    25    1
    27     8    26    1
    28     8    27    1
    29     8    28    1
    30     4    29    1
    31    22    30    1
    32    22    31    1
    33    22    32    1
    34     6    33    1
    35    21    34    1
    36     3    35    1
    37     3    36    1
    38    12    37    1
    39    16    38    1
    40    14    39    1
    41    20    40    1
    42    20    41    1
    43    19    42    1
    44    19    43    1
    45    10    44    1
    46    10    45    1
    47     9    46    1
    48     9    47    1
@<TRIPOS>SUBSTRUCTURE
     1 EXI800      1 GROUP             0 A     EXI     0  
@<TRIPOS>SET
CCDC_LIGAND STATIC ATOMS
47 1 2 3 4 5 6 7 8 9 \
10 11 12 13 14 15 16 17 18 19 \
20 21 22 23 24 25 26 27 28 29 \
30 31 32 33 34 35 36 37 38 39 \
40 41 42 43 44 45 46 47 
