@<TRIPOS>MOLECULE
D:GOL880
    14    13     1     0     1
SMALL
NO_CHARGES
****
Generated from the CSD

@<TRIPOS>ATOM
     1 C1     245.6560 -10.8360  45.1950   C.3       1 GOL880   0.0000
     2 O1     246.9660 -10.8980  45.7230   O.3       1 GOL880   0.0000
     3 C2     245.3820 -12.0120  44.2560   C.3       1 GOL880   0.0000
     4 O2     243.9830 -12.1380  44.0750   O.3       1 GOL880   0.0000
     5 C3     246.1160 -11.8710  42.9150   C.3       1 GOL880   0.0000
     6 O3     245.2480 -11.4490  41.8700   O.3       1 GOL880   0.0000
     7 H1     245.7405 -12.9189  44.7408   H         1 GOL880   0.0000
     8 H2     245.5396  -9.9052  44.6419   H         1 GOL880   0.0000
     9 H3     244.9406 -10.8625  46.0156   H         1 GOL880   0.0000
    10 H4     247.6241 -10.8700  44.9799   H         1 GOL880   0.0000
    11 H5     244.8558 -10.5666  42.1015   H         1 GOL880   0.0000
    12 H6     246.5451 -12.8353  42.6468   H         1 GOL880   0.0000
    13 H7     246.9131 -11.1375  43.0267   H         1 GOL880   0.0000
    14 H8     243.6238 -11.3013  43.6788   H         1 GOL880   0.0000
@<TRIPOS>BOND
     1     1     2    1
     2     1     3    1
     3     3     4    1
     4     3     5    1
     5     5     6    1
     6     3     7    1
     7     1     8    1
     8     1     9    1
     9     2    10    1
    10     6    11    1
    11     5    12    1
    12     5    13    1
    13     4    14    1
@<TRIPOS>SUBSTRUCTURE
     1 GOL880      1 GROUP             0 D     GOL     0  
@<TRIPOS>SET
CCDC_LIGAND STATIC ATOMS
14 1 2 3 4 5 6 7 8 9 \
10 11 12 13 14 
