@<TRIPOS>MOLECULE
C:GOL882
    14    13     1     0     1
SMALL
NO_CHARGES
****
Generated from the CSD

@<TRIPOS>ATOM
     1 C1     211.6840  44.5580   8.2680   C.3       1 GOL882   0.0000
     2 O1     211.4530  44.2490   9.6300   O.3       1 GOL882   0.0000
     3 C2     213.1280  44.2270   7.8860   C.3       1 GOL882   0.0000
     4 O2     213.9860  44.4530   8.9930   O.3       1 GOL882   0.0000
     5 C3     213.2490  42.7800   7.3880   C.3       1 GOL882   0.0000
     6 O3     214.5820  42.2990   7.4910   O.3       1 GOL882   0.0000
     7 H1     214.8720  42.3282   8.4403   H         1 GOL882   0.0000
     8 H2     212.9383  42.7385   6.3451   H         1 GOL882   0.0000
     9 H3     212.5974  42.1451   7.9864   H         1 GOL882   0.0000
    10 H4     213.7077  43.8750   9.7509   H         1 GOL882   0.0000
    11 H5     213.4292  44.8927   7.0785   H         1 GOL882   0.0000
    12 H6     212.0689  44.7808  10.1991   H         1 GOL882   0.0000
    13 H7     211.5035  45.6195   8.1048   H         1 GOL882   0.0000
    14 H8     211.0055  43.9748   7.6472   H         1 GOL882   0.0000
@<TRIPOS>BOND
     1     1     2    1
     2     1     3    1
     3     3     4    1
     4     3     5    1
     5     5     6    1
     6     6     7    1
     7     5     8    1
     8     5     9    1
     9     4    10    1
    10     3    11    1
    11     2    12    1
    12     1    13    1
    13     1    14    1
@<TRIPOS>SUBSTRUCTURE
     1 GOL882      1 GROUP             0 C     GOL     0  
@<TRIPOS>SET
CCDC_LIGAND STATIC ATOMS
14 1 2 3 4 5 6 7 8 9 \
10 11 12 13 14 
