@<TRIPOS>MOLECULE
B:GOL880
    14    13     1     0     1
SMALL
NO_CHARGES
****
Generated from the CSD

@<TRIPOS>ATOM
     1 C1     191.7620 -13.0360  43.5990   C.3       1 GOL880   0.0000
     2 O1     191.4180 -11.7300  43.1620   O.3       1 GOL880   0.0000
     3 C2     192.8440 -13.0690  44.6910   C.3       1 GOL880   0.0000
     4 O2     194.0820 -12.5620  44.2330   O.3       1 GOL880   0.0000
     5 C3     192.3970 -12.4110  45.9990   C.3       1 GOL880   0.0000
     6 O3     193.4930 -12.1840  46.8670   O.3       1 GOL880   0.0000
     7 H1     194.1489 -11.5856  46.4224   H         1 GOL880   0.0000
     8 H2     191.6808 -13.0633  46.4965   H         1 GOL880   0.0000
     9 H3     191.9225 -11.4576  45.7714   H         1 GOL880   0.0000
    10 H4     193.9665 -11.6196  43.9421   H         1 GOL880   0.0000
    11 H5     193.0121 -14.1201  44.9211   H         1 GOL880   0.0000
    12 H6     192.2226 -11.2830  42.7892   H         1 GOL880   0.0000
    13 H7     192.1254 -13.5990  42.7406   H         1 GOL880   0.0000
    14 H8     190.8650 -13.5122  43.9921   H         1 GOL880   0.0000
@<TRIPOS>BOND
     1     1     2    1
     2     1     3    1
     3     3     4    1
     4     3     5    1
     5     5     6    1
     6     6     7    1
     7     5     8    1
     8     5     9    1
     9     4    10    1
    10     3    11    1
    11     2    12    1
    12     1    13    1
    13     1    14    1
@<TRIPOS>SUBSTRUCTURE
     1 GOL880      1 GROUP             0 B     GOL     0  
@<TRIPOS>SET
CCDC_LIGAND STATIC ATOMS
14 1 2 3 4 5 6 7 8 9 \
10 11 12 13 14 
