@<TRIPOS>MOLECULE
B:EG8800
    43    45     1     0     1
SMALL
NO_CHARGES
****
Generated from the CSD

@<TRIPOS>ATOM
     1 C6'    190.3240  17.7250  45.5290   C.ar      1 EG8800   0.0000
     2 C5'    189.3760  17.4850  46.5200   C.ar      1 EG8800   0.0000
     3 C4'    188.7990  16.2220  46.6340   C.ar      1 EG8800   0.0000
     4 C3'    189.1980  15.2300  45.7470   C.ar      1 EG8800   0.0000
     5 C2'    190.1570  15.5160  44.7760   C.ar      1 EG8800   0.0000
     6 N1'    190.6930  16.7440  44.6850   N.ar      1 EG8800   0.0000
     7 N01    190.0570   3.9760  49.9540   N.2       1 EG8800   0.0000
     8 C02    189.5410   5.2210  49.8710   C.2       1 EG8800   0.0000
     9 N03    188.2730   4.9780  49.5240   N.pl3     1 EG8800   0.0000
    10 C04    187.9470   3.6920  49.3760   C.2       1 EG8800   0.0000
    11 C05    189.1300   3.0370  49.6680   C.2       1 EG8800   0.0000
    12 N11    187.9120   7.2240  49.1940   N.ar      1 EG8800   0.0000
    13 C12    187.4090   5.9780  49.3290   C.ar      1 EG8800   0.0000
    14 N13    186.0800   5.7490  49.2490   N.ar      1 EG8800   0.0000
    15 C14    185.2360   6.7680  49.0460   C.ar      1 EG8800   0.0000
    16 C15    185.7270   8.0610  48.9130   C.ar      1 EG8800   0.0000
    17 C16    187.0940   8.2710  48.9980   C.ar      1 EG8800   0.0000
    18 C17    187.6950   9.6450  48.8460   C.3       1 EG8800   0.0000
    19 C18    188.9350   9.5030  47.9650   C.3       1 EG8800   0.0000
    20 N19    189.5430  10.8190  47.7570   N.3       1 EG8800   0.0000
    21 C20    188.5690  11.6850  47.0870   C.3       1 EG8800   0.0000
    22 C21    189.0790  13.1140  47.0750   C.3       1 EG8800   0.0000
    23 C22    188.6040  13.8400  45.8220   C.3       1 EG8800   0.0000
    24 H1     185.0484   8.8959  48.7447   H         1 EG8800   0.0000
    25 H2     190.4743  14.7364  44.0850   H         1 EG8800   0.0000
    26 H3     189.2854   1.9591  49.6673   H         1 EG8800   0.0000
    27 H4     190.0319   6.1778  50.0427   H         1 EG8800   0.0000
    28 H5     188.0528  16.0172  47.4003   H         1 EG8800   0.0000
    29 H6     189.0865  18.2817  47.2037   H         1 EG8800   0.0000
    30 H7     186.9861   3.2638  49.0946   H         1 EG8800   0.0000
    31 H8     184.1645   6.5836  48.9851   H         1 EG8800   0.0000
    32 H9     188.6497   9.0794  47.0032   H         1 EG8800   0.0000
    33 H10    189.6528   8.8451  48.4528   H         1 EG8800   0.0000
    34 H11    187.9742  10.0397  49.8218   H         1 EG8800   0.0000
    35 H12    186.9778  10.3155  48.3749   H         1 EG8800   0.0000
    36 H13    190.7702  18.7140  45.4362   H         1 EG8800   0.0000
    37 H14    188.9099  13.2734  44.9438   H         1 EG8800   0.0000
    38 H15    187.5179  13.9168  45.8443   H         1 EG8800   0.0000
    39 H16    190.1678  13.1060  47.0935   H         1 EG8800   0.0000
    40 H17    188.7048  13.6354  47.9548   H         1 EG8800   0.0000
    41 H18    187.6205  11.6436  47.6204   H         1 EG8800   0.0000
    42 H19    188.4249  11.3434  46.0631   H         1 EG8800   0.0000
    43 H20    190.3716  10.7250  47.1783   H         1 EG8800   0.0000
@<TRIPOS>BOND
     1     1     2   ar
     2     2     3   ar
     3     3     4   ar
     4     4     5   ar
     5     1     6   ar
     6     5     6   ar
     7     7     8    2
     8     8     9    1
     9     9    10    1
    10     7    11    1
    11    10    11    2
    12     9    13    1
    13    12    13   ar
    14    13    14   ar
    15    14    15   ar
    16    15    16   ar
    17    12    17   ar
    18    16    17   ar
    19    17    18    1
    20    18    19    1
    21    19    20    1
    22    20    21    1
    23    21    22    1
    24     4    23    1
    25    22    23    1
    26    16    24    1
    27     5    25    1
    28    11    26    1
    29     8    27    1
    30     3    28    1
    31     2    29    1
    32    10    30    1
    33    15    31    1
    34    19    32    1
    35    19    33    1
    36    18    34    1
    37    18    35    1
    38     1    36    1
    39    23    37    1
    40    23    38    1
    41    22    39    1
    42    22    40    1
    43    21    41    1
    44    21    42    1
    45    20    43    1
@<TRIPOS>SUBSTRUCTURE
     1 EG8800      1 GROUP             0 B     EG8     0  
@<TRIPOS>SET
CCDC_LIGAND STATIC ATOMS
43 1 2 3 4 5 6 7 8 9 \
10 11 12 13 14 15 16 17 18 19 \
20 21 22 23 24 25 26 27 28 29 \
30 31 32 33 34 35 36 37 38 39 \
40 41 42 43 
