@<TRIPOS>MOLECULE
C:EG8800
    43    45     1     0     1
SMALL
NO_CHARGES
****
Generated from the CSD

@<TRIPOS>ATOM
     1 C6'    223.7540  14.0830  18.4650   C.ar      1 EG8800   0.0000
     2 C5'    224.8380  13.7250  17.6740   C.ar      1 EG8800   0.0000
     3 C4'    225.3640  14.6570  16.7770   C.ar      1 EG8800   0.0000
     4 C3'    224.7960  15.9240  16.6930   C.ar      1 EG8800   0.0000
     5 C2'    223.7070  16.2310  17.5010   C.ar      1 EG8800   0.0000
     6 N1'    223.2220  15.3150  18.3580   N.ar      1 EG8800   0.0000
     7 N01    229.0170  27.5580  14.7060   N.2       1 EG8800   0.0000
     8 C02    228.7590  26.2380  14.6180   C.2       1 EG8800   0.0000
     9 N03    228.5220  26.0540  13.3140   N.pl3     1 EG8800   0.0000
    10 C04    228.6120  27.1550  12.5720   C.2       1 EG8800   0.0000
    11 C05    228.9380  28.1360  13.4820   C.2       1 EG8800   0.0000
    12 N11    228.0270  23.7720  13.5750   N.ar      1 EG8800   0.0000
    13 C12    228.2180  24.8560  12.7800   C.ar      1 EG8800   0.0000
    14 N13    228.0970  24.7500  11.4360   N.ar      1 EG8800   0.0000
    15 C14    227.7970  23.5780  10.8640   C.ar      1 EG8800   0.0000
    16 C15    227.5950  22.4540  11.6530   C.ar      1 EG8800   0.0000
    17 C16    227.7190  22.5690  13.0320   C.ar      1 EG8800   0.0000
    18 C17    227.4970  21.3520  13.9010   C.3       1 EG8800   0.0000
    19 C18    226.5020  21.7070  15.0000   C.3       1 EG8800   0.0000
    20 N19    226.3290  20.5740  15.9230   N.3       1 EG8800   0.0000
    21 C20    225.7830  19.3840  15.2520   C.3       1 EG8800   0.0000
    22 C21    225.3020  18.3600  16.2870   C.3       1 EG8800   0.0000
    23 C22    225.3570  16.9380  15.7220   C.3       1 EG8800   0.0000
    24 H1     226.5583  18.9329  14.6345   H         1 EG8800   0.0000
    25 H2     224.9444  19.6797  14.6233   H         1 EG8800   0.0000
    26 H3     228.4630  27.2564  11.4980   H         1 EG8800   0.0000
    27 H4     228.7464  25.4982  15.4170   H         1 EG8800   0.0000
    28 H5     227.7114  23.5062   9.7807   H         1 EG8800   0.0000
    29 H6     229.1030  29.1889  13.2582   H         1 EG8800   0.0000
    30 H7     223.2456  17.2155  17.4398   H         1 EG8800   0.0000
    31 H8     226.2129  14.3938  16.1477   H         1 EG8800   0.0000
    32 H9     225.2725  12.7295  17.7524   H         1 EG8800   0.0000
    33 H10    223.3348  13.3678  19.1711   H         1 EG8800   0.0000
    34 H11    224.7768  16.9023  14.8011   H         1 EG8800   0.0000
    35 H12    226.3941  16.6841  15.5077   H         1 EG8800   0.0000
    36 H13    224.2754  18.5922  16.5666   H         1 EG8800   0.0000
    37 H14    225.9400  18.4178  17.1676   H         1 EG8800   0.0000
    38 H15    227.3433  21.4970  11.1982   H         1 EG8800   0.0000
    39 H16    225.6932  20.8511  16.6641   H         1 EG8800   0.0000
    40 H17    225.5416  21.9517  14.5487   H         1 EG8800   0.0000
    41 H18    226.8724  22.5679  15.5546   H         1 EG8800   0.0000
    42 H19    228.4413  21.0443  14.3478   H         1 EG8800   0.0000
    43 H20    227.0993  20.5383  13.2963   H         1 EG8800   0.0000
@<TRIPOS>BOND
     1     1     2   ar
     2     2     3   ar
     3     3     4   ar
     4     4     5   ar
     5     1     6   ar
     6     5     6   ar
     7     7     8    2
     8     8     9    1
     9     9    10    1
    10     7    11    1
    11    10    11    2
    12     9    13    1
    13    12    13   ar
    14    13    14   ar
    15    14    15   ar
    16    15    16   ar
    17    12    17   ar
    18    16    17   ar
    19    17    18    1
    20    18    19    1
    21    19    20    1
    22    20    21    1
    23    21    22    1
    24     4    23    1
    25    22    23    1
    26    21    24    1
    27    21    25    1
    28    10    26    1
    29     8    27    1
    30    15    28    1
    31    11    29    1
    32     5    30    1
    33     3    31    1
    34     2    32    1
    35     1    33    1
    36    23    34    1
    37    23    35    1
    38    22    36    1
    39    22    37    1
    40    16    38    1
    41    20    39    1
    42    19    40    1
    43    19    41    1
    44    18    42    1
    45    18    43    1
@<TRIPOS>SUBSTRUCTURE
     1 EG8800      1 GROUP             0 C     EG8     0  
@<TRIPOS>SET
CCDC_LIGAND STATIC ATOMS
43 1 2 3 4 5 6 7 8 9 \
10 11 12 13 14 15 16 17 18 19 \
20 21 22 23 24 25 26 27 28 29 \
30 31 32 33 34 35 36 37 38 39 \
40 41 42 43 
