@<TRIPOS>MOLECULE
A:GOL880
    14    13     1     0     1
SMALL
NO_CHARGES
****
Generated from the CSD

@<TRIPOS>ATOM
     1 C1     212.3750  46.8840  66.8220   C.3       1 GOL880   0.0000
     2 O1     213.1270  47.1680  67.9880   O.3       1 GOL880   0.0000
     3 C2     211.2540  47.9060  66.5750   C.3       1 GOL880   0.0000
     4 O2     211.1610  48.1970  65.1900   O.3       1 GOL880   0.0000
     5 C3     209.9010  47.4540  67.1470   C.3       1 GOL880   0.0000
     6 O3     208.9480  47.0720  66.1560   O.3       1 GOL880   0.0000
     7 H1     209.3084  46.3144  65.6248   H         1 GOL880   0.0000
     8 H2     209.4822  48.2763  67.7252   H         1 GOL880   0.0000
     9 H3     210.0742  46.6012  67.8017   H         1 GOL880   0.0000
    10 H4     210.9597  47.3634  64.6894   H         1 GOL880   0.0000
    11 H5     211.5331  48.8270  67.0846   H         1 GOL880   0.0000
    12 H6     212.5271  47.1583  68.7793   H         1 GOL880   0.0000
    13 H7     211.9288  45.8962  66.9273   H         1 GOL880   0.0000
    14 H8     213.0464  46.8895  65.9646   H         1 GOL880   0.0000
@<TRIPOS>BOND
     1     1     2    1
     2     1     3    1
     3     3     4    1
     4     3     5    1
     5     5     6    1
     6     6     7    1
     7     5     8    1
     8     5     9    1
     9     4    10    1
    10     3    11    1
    11     2    12    1
    12     1    13    1
    13     1    14    1
@<TRIPOS>SUBSTRUCTURE
     1 GOL880      1 GROUP             0 A     GOL     0  
@<TRIPOS>SET
CCDC_LIGAND STATIC ATOMS
14 1 2 3 4 5 6 7 8 9 \
10 11 12 13 14 
