@<TRIPOS>MOLECULE
D:EG8800
    43    45     1     0     1
SMALL
NO_CHARGES
****
Generated from the CSD

@<TRIPOS>ATOM
     1 C6'    246.2290  18.3620  39.3730   C.ar      1 EG8800   0.0000
     2 C5'    247.2500  18.5080  38.4350   C.ar      1 EG8800   0.0000
     3 C4'    248.0130  17.4020  38.0500   C.ar      1 EG8800   0.0000
     4 C3'    247.7230  16.1640  38.6110   C.ar      1 EG8800   0.0000
     5 C2'    246.6860  16.0690  39.5420   C.ar      1 EG8800   0.0000
     6 N1'    245.9680  17.1550  39.8980   N.ar      1 EG8800   0.0000
     7 N01    247.3000   4.0180  36.4060   N.2       1 EG8800   0.0000
     8 C02    247.6900   5.3040  36.2520   C.2       1 EG8800   0.0000
     9 N03    248.9630   5.2870  36.6450   N.pl3     1 EG8800   0.0000
    10 C04    249.4250   4.1020  37.0420   C.2       1 EG8800   0.0000
    11 C05    248.3300   3.2690  36.8760   C.2       1 EG8800   0.0000
    12 N11    249.1410   7.6020  36.7590   N.ar      1 EG8800   0.0000
    13 C12    249.7240   6.3780  36.6630   C.ar      1 EG8800   0.0000
    14 N13    251.0670   6.2350  36.6140   N.ar      1 EG8800   0.0000
    15 C14    251.8590   7.3140  36.6410   C.ar      1 EG8800   0.0000
    16 C15    251.2970   8.5850  36.7300   C.ar      1 EG8800   0.0000
    17 C16    249.9160   8.7100  36.7870   C.ar      1 EG8800   0.0000
    18 C17    249.2980  10.0800  36.8900   C.3       1 EG8800   0.0000
    19 C18    248.0550  10.0240  37.7670   C.3       1 EG8800   0.0000
    20 N19    247.4220  11.3500  37.8160   N.3       1 EG8800   0.0000
    21 C20    248.4140  12.4200  38.0380   C.3       1 EG8800   0.0000
    22 C21    247.6890  13.6880  38.4690   C.3       1 EG8800   0.0000
    23 C22    248.5190  14.9390  38.2110   C.3       1 EG8800   0.0000
    24 H1     246.7471  11.3646  38.5740   H         1 EG8800   0.0000
    25 H2     248.3362   9.7198  38.7741   H         1 EG8800   0.0000
    26 H3     247.3522   9.3026  37.3528   H         1 EG8800   0.0000
    27 H4     249.0226  10.4274  35.8953   H         1 EG8800   0.0000
    28 H5     250.0184  10.7689  37.3286   H         1 EG8800   0.0000
    29 H6     251.9326   9.4689  36.7545   H         1 EG8800   0.0000
    30 H7     248.3009   2.2008  37.0858   H         1 EG8800   0.0000
    31 H8     250.4194   3.8498  37.4074   H         1 EG8800   0.0000
    32 H9     245.6433  19.2274  39.6796   H         1 EG8800   0.0000
    33 H10    248.9607  12.6080  37.1151   H         1 EG8800   0.0000
    34 H11    249.1111  12.1154  38.8172   H         1 EG8800   0.0000
    35 H12    252.9408   7.1980  36.5935   H         1 EG8800   0.0000
    36 H13    247.1047   6.1494  35.8933   H         1 EG8800   0.0000
    37 H14    246.4531  15.1031  39.9878   H         1 EG8800   0.0000
    38 H15    248.8186  17.5082  37.3250   H         1 EG8800   0.0000
    39 H16    247.4535  19.4860  38.0013   H         1 EG8800   0.0000
    40 H17    249.4354  14.8940  38.7976   H         1 EG8800   0.0000
    41 H18    248.7680  14.9976  37.1525   H         1 EG8800   0.0000
    42 H19    247.4726  13.6238  39.5344   H         1 EG8800   0.0000
    43 H20    246.7558  13.7650  37.9130   H         1 EG8800   0.0000
@<TRIPOS>BOND
     1     1     2   ar
     2     2     3   ar
     3     3     4   ar
     4     4     5   ar
     5     1     6   ar
     6     5     6   ar
     7     7     8    2
     8     8     9    1
     9     9    10    1
    10     7    11    1
    11    10    11    2
    12     9    13    1
    13    12    13   ar
    14    13    14   ar
    15    14    15   ar
    16    15    16   ar
    17    12    17   ar
    18    16    17   ar
    19    17    18    1
    20    18    19    1
    21    19    20    1
    22    20    21    1
    23    21    22    1
    24     4    23    1
    25    22    23    1
    26    20    24    1
    27    19    25    1
    28    19    26    1
    29    18    27    1
    30    18    28    1
    31    16    29    1
    32    11    30    1
    33    10    31    1
    34     1    32    1
    35    21    33    1
    36    21    34    1
    37    15    35    1
    38     8    36    1
    39     5    37    1
    40     3    38    1
    41     2    39    1
    42    23    40    1
    43    23    41    1
    44    22    42    1
    45    22    43    1
@<TRIPOS>SUBSTRUCTURE
     1 EG8800      1 GROUP             0 D     EG8     0  
@<TRIPOS>SET
CCDC_LIGAND STATIC ATOMS
43 1 2 3 4 5 6 7 8 9 \
10 11 12 13 14 15 16 17 18 19 \
20 21 22 23 24 25 26 27 28 29 \
30 31 32 33 34 35 36 37 38 39 \
40 41 42 43 
