@<TRIPOS>MOLECULE
A:EG8800
    43    45     1     0     1
SMALL
NO_CHARGES
****
Generated from the CSD

@<TRIPOS>ATOM
     1 C6'    212.8800  17.2940  66.6150   C.ar      1 EG8800   0.0000
     2 C5'    211.8270  16.9350  67.4560   C.ar      1 EG8800   0.0000
     3 C4'    211.1640  17.8970  68.2100   C.ar      1 EG8800   0.0000
     4 C3'    211.5830  19.2170  68.0990   C.ar      1 EG8800   0.0000
     5 C2'    212.6480  19.5250  67.2390   C.ar      1 EG8800   0.0000
     6 N1'    213.2710  18.5750  66.5170   N.ar      1 EG8800   0.0000
     7 N01    207.0940  30.7790  68.2420   N.2       1 EG8800   0.0000
     8 C02    207.2350  29.4720  68.5700   C.2       1 EG8800   0.0000
     9 N03    207.6400  29.5290  69.8400   N.pl3     1 EG8800   0.0000
    10 C04    207.7790  30.7600  70.3390   C.2       1 EG8800   0.0000
    11 C05    207.4130  31.5800  69.2890   C.2       1 EG8800   0.0000
    12 N11    208.1590  27.2660  69.9370   N.ar      1 EG8800   0.0000
    13 C12    207.9240  28.4420  70.5630   C.ar      1 EG8800   0.0000
    14 N13    208.0010  28.5510  71.9110   N.ar      1 EG8800   0.0000
    15 C14    208.2930  27.4870  72.6650   C.ar      1 EG8800   0.0000
    16 C15    208.5240  26.2590  72.0490   C.ar      1 EG8800   0.0000
    17 C16    208.4460  26.1660  70.6660   C.ar      1 EG8800   0.0000
    18 C17    208.7140  24.8540  69.9840   C.3       1 EG8800   0.0000
    19 C18    209.7380  25.1020  68.8720   C.3       1 EG8800   0.0000
    20 N19    209.9460  23.8910  68.0540   N.3       1 EG8800   0.0000
    21 C20    210.4540  22.7870  68.8890   C.3       1 EG8800   0.0000
    22 C21    210.7280  21.5560  68.0390   C.3       1 EG8800   0.0000
    23 C22    210.8930  20.3060  68.9010   C.3       1 EG8800   0.0000
    24 H1     208.3497  27.5788  73.7486   H         1 EG8800   0.0000
    25 H2     211.4946  20.5470  69.7762   H         1 EG8800   0.0000
    26 H3     209.9128  19.9545  69.2198   H         1 EG8800   0.0000
    27 H4     207.7914  24.4637  69.5570   H         1 EG8800   0.0000
    28 H5     209.1130  24.1387  70.7016   H         1 EG8800   0.0000
    29 H6     211.6420  21.7159  67.4689   H         1 EG8800   0.0000
    30 H7     209.8946  21.4061  67.3542   H         1 EG8800   0.0000
    31 H8     209.7119  22.5407  69.6470   H         1 EG8800   0.0000
    32 H9     211.3776  23.1003  69.3735   H         1 EG8800   0.0000
    33 H10    210.6192  24.0936  67.3219   H         1 EG8800   0.0000
    34 H11    210.6861  25.3935  69.3215   H         1 EG8800   0.0000
    35 H12    209.3779  25.9054  68.2310   H         1 EG8800   0.0000
    36 H13    207.3857  32.6686  69.3000   H         1 EG8800   0.0000
    37 H14    208.1040  31.0491  71.3374   H         1 EG8800   0.0000
    38 H15    208.7634  25.3806  72.6465   H         1 EG8800   0.0000
    39 H16    207.0610  28.5932  67.9508   H         1 EG8800   0.0000
    40 H17    212.9790  20.5589  67.1535   H         1 EG8800   0.0000
    41 H18    210.3405  17.6238  68.8682   H         1 EG8800   0.0000
    42 H19    211.5213  15.8919  67.5228   H         1 EG8800   0.0000
    43 H20    213.3900  16.5283  66.0323   H         1 EG8800   0.0000
@<TRIPOS>BOND
     1     1     2   ar
     2     2     3   ar
     3     3     4   ar
     4     4     5   ar
     5     1     6   ar
     6     5     6   ar
     7     7     8    2
     8     8     9    1
     9     9    10    1
    10     7    11    1
    11    10    11    2
    12     9    13    1
    13    12    13   ar
    14    13    14   ar
    15    14    15   ar
    16    15    16   ar
    17    12    17   ar
    18    16    17   ar
    19    17    18    1
    20    18    19    1
    21    19    20    1
    22    20    21    1
    23    21    22    1
    24     4    23    1
    25    22    23    1
    26    15    24    1
    27    23    25    1
    28    23    26    1
    29    18    27    1
    30    18    28    1
    31    22    29    1
    32    22    30    1
    33    21    31    1
    34    21    32    1
    35    20    33    1
    36    19    34    1
    37    19    35    1
    38    11    36    1
    39    10    37    1
    40    16    38    1
    41     8    39    1
    42     5    40    1
    43     3    41    1
    44     2    42    1
    45     1    43    1
@<TRIPOS>SUBSTRUCTURE
     1 EG8800      1 GROUP             0 A     EG8     0  
@<TRIPOS>SET
CCDC_LIGAND STATIC ATOMS
43 1 2 3 4 5 6 7 8 9 \
10 11 12 13 14 15 16 17 18 19 \
20 21 22 23 24 25 26 27 28 29 \
30 31 32 33 34 35 36 37 38 39 \
40 41 42 43 
