@<TRIPOS>MOLECULE
C:GOL880
    14    13     1     0     1
SMALL
NO_CHARGES
****
Generated from the CSD

@<TRIPOS>ATOM
     1 C1     222.9030  43.5250  13.8440   C.3       1 GOL880   0.0000
     2 O1     222.5380  43.3250  12.4970   O.3       1 GOL880   0.0000
     3 C2     223.9000  44.6800  13.9440   C.3       1 GOL880   0.0000
     4 O2     223.8450  45.2600  15.2320   O.3       1 GOL880   0.0000
     5 C3     225.3080  44.1750  13.6650   C.3       1 GOL880   0.0000
     6 O3     225.8650  43.6050  14.8340   O.3       1 GOL880   0.0000
     7 H1     225.3008  42.8444  15.1326   H         1 GOL880   0.0000
     8 H2     225.9303  45.0072  13.3393   H         1 GOL880   0.0000
     9 H3     225.2704  43.4209  12.8802   H         1 GOL880   0.0000
    10 H4     224.0715  44.5744  15.9137   H         1 GOL880   0.0000
    11 H5     223.6417  45.4359  13.2039   H         1 GOL880   0.0000
    12 H6     223.3469  43.1077  11.9636   H         1 GOL880   0.0000
    13 H7     223.3613  42.6170  14.2331   H         1 GOL880   0.0000
    14 H8     222.0149  43.7623  14.4279   H         1 GOL880   0.0000
@<TRIPOS>BOND
     1     1     2    1
     2     1     3    1
     3     3     4    1
     4     3     5    1
     5     5     6    1
     6     6     7    1
     7     5     8    1
     8     5     9    1
     9     4    10    1
    10     3    11    1
    11     2    12    1
    12     1    13    1
    13     1    14    1
@<TRIPOS>SUBSTRUCTURE
     1 GOL880      1 GROUP             0 C     GOL     0  
@<TRIPOS>SET
CCDC_LIGAND STATIC ATOMS
14 1 2 3 4 5 6 7 8 9 \
10 11 12 13 14 
