@<TRIPOS>MOLECULE
crystal
    52    55     1     0     0
SMALL
NO_CHARGES
****
Generated from the CSD

@<TRIPOS>ATOM
     1 O1       5.5800   2.0698   0.3978   O.3       1 RES1   0.0000
     2 C2       4.3223   1.6361   0.7368   C.ar      1 RES1   0.0000
     3 C3       6.4366   2.4976   1.4474   C.3       1 RES1   0.0000
     4 C4       3.5076   1.2127  -0.3241   C.ar      1 RES1   0.0000
     5 C5       3.8212   1.6028   2.0429   C.ar      1 RES1   0.0000
     6 O6       4.0574   1.2829  -1.5782   O.3       1 RES1   0.0000
     7 C7       2.2189   0.7527  -0.0470   C.ar      1 RES1   0.0000
     8 C8       2.5386   1.1532   2.3298   C.ar      1 RES1   0.0000
     9 C9       3.2302   0.9533  -2.6848   C.3       1 RES1   0.0000
    10 C10      1.7249   0.7080   1.2830   C.ar      1 RES1   0.0000
    11 N11      2.1349   1.1710   3.6024   N.ar      1 RES1   0.0000
    12 C12      0.4473   0.2535   1.6589   C.ar      1 RES1   0.0000
    13 C13      0.8898   0.7460   3.8585   C.ar      1 RES1   0.0000
    14 N14      0.0264   0.3036   2.9337   N.ar      1 RES1   0.0000
    15 N15     -0.4404  -0.2173   0.7010   N.pl3     1 RES1   0.0000
    16 C16      0.4125   0.8117   5.2752   C.3       1 RES1   0.0000
    17 C17     -1.8337  -0.4786   1.0264   C.3       1 RES1   0.0000
    18 C18     -2.6335  -0.3067  -0.2615   C.ar      1 RES1   0.0000
    19 C19     -1.9875  -1.8623   1.6660   C.3       1 RES1   0.0000
    20 C20     -2.8278  -1.3520  -1.1852   C.ar      1 RES1   0.0000
    21 C21     -3.1510   0.9596  -0.5712   C.ar      1 RES1   0.0000
    22 C22     -3.5461  -1.1631  -2.3796   C.ar      1 RES1   0.0000
    23 C23     -3.8637   1.1671  -1.7490   C.ar      1 RES1   0.0000
    24 C24     -3.7472  -2.2591  -3.3305   C.2       1 RES1   0.0000
    25 C25     -4.0616   0.1135  -2.6428   C.ar      1 RES1   0.0000
    26 C26     -3.3870  -3.5428  -3.2616   C.2       1 RES1   0.0000
    27 C27     -4.4433  -2.1445  -4.6412   C.3       1 RES1   0.0000
    28 N28     -3.7565  -4.2690  -4.3607   N.2       1 RES1   0.0000
    29 N29     -4.3607  -3.5265  -5.1826   N.2       1 RES1   0.0000
    30 H1       7.3927   2.8109   1.0307   H         1 RES1   0.0000
    31 H2       6.5959   1.6756   2.1437   H         1 RES1   0.0000
    32 H3       5.9777   3.3342   1.9722   H         1 RES1   0.0000
    33 H4       4.4569   1.9400   2.8603   H         1 RES1   0.0000
    34 H5       1.5814   0.4223  -0.8657   H         1 RES1   0.0000
    35 H6       2.3744   1.6263  -2.7115   H         1 RES1   0.0000
    36 H7       3.8004   1.0544  -3.6071   H         1 RES1   0.0000
    37 H8       2.8816  -0.0735  -2.5843   H         1 RES1   0.0000
    38 H9      -0.1107  -0.3824  -0.2447   H         1 RES1   0.0000
    39 H10     -0.6083   0.4367   5.3321   H         1 RES1   0.0000
    40 H11      0.4396   1.8444   5.6199   H         1 RES1   0.0000
    41 H12      1.0588   0.2018   5.9047   H         1 RES1   0.0000
    42 H13     -2.1672   0.2713   1.7422   H         1 RES1   0.0000
    43 H14     -1.3911  -1.9099   2.5759   H         1 RES1   0.0000
    44 H15     -1.6459  -2.6250   0.9677   H         1 RES1   0.0000
    45 H16     -3.0348  -2.0355   1.9090   H         1 RES1   0.0000
    46 H17     -2.4101  -2.3341  -0.9685   H         1 RES1   0.0000
    47 H18     -2.9937   1.7890   0.1167   H         1 RES1   0.0000
    48 H19     -4.2675   2.1533  -1.9733   H         1 RES1   0.0000
    49 H20     -4.6251   0.2859  -3.5586   H         1 RES1   0.0000
    50 H21     -2.8521  -3.9696  -2.4145   H         1 RES1   0.0000
    51 H22     -3.9349  -1.4368  -5.2943   H         1 RES1   0.0000
    52 H23     -5.4795  -1.8367  -4.5090   H         1 RES1   0.0000
@<TRIPOS>BOND
     1     1     2    1
     2     1     3    1
     3     2     4   ar
     4     2     5   ar
     5     4     6    1
     6     4     7   ar
     7     5     8   ar
     8     6     9    1
     9     7    10   ar
    10     8    11   ar
    11    10    12   ar
    12    11    13   ar
    13    12    14   ar
    14    12    15    1
    15    13    16    1
    16    15    17    1
    17    17    18    1
    18    17    19    1
    19    18    20   ar
    20    18    21   ar
    21    20    22   ar
    22    21    23   ar
    23    22    24    1
    24    22    25   ar
    25    24    26    2
    26    24    27    1
    27    26    28    1
    28    27    29    1
    29     8    10   ar
    30    13    14   ar
    31    23    25   ar
    32    28    29    2
    33     3    30    1
    34     3    31    1
    35     3    32    1
    36     5    33    1
    37     7    34    1
    38     9    35    1
    39     9    36    1
    40     9    37    1
    41    15    38    1
    42    16    39    1
    43    16    40    1
    44    16    41    1
    45    17    42    1
    46    19    43    1
    47    19    44    1
    48    19    45    1
    49    20    46    1
    50    21    47    1
    51    23    48    1
    52    25    49    1
    53    26    50    1
    54    27    51    1
    55    27    52    1
@<TRIPOS>SUBSTRUCTURE
     1 RES1        1 GROUP             0 ****  ****    0  
