#       Name:                CT1002167954
#       Creating user name   hitesit
#       Creation time:       Sun Apr 16 22:54:45 2023


#       File generated by GOLD software.
#

@<TRIPOS>MOLECULE
CT1002167954|ligand_prepared|mol2|1|dock5
    29    30     1
SMALL
NO_CHARGES


@<TRIPOS>ATOM
      1 C1         207.9488  47.3800  67.6861 C.3            1 RES1               0.0000
      2 C2         207.2655  46.3160  68.5692 C.ar           1 RES1               0.0000
      3 C3         208.6513  48.3416  68.6401 C.2            1 RES1               0.0000
      4 C4         208.8930  46.6226  66.7591 C.2            1 RES1               0.0000
      5 C5         206.9653  48.1892  66.8089 C.3            1 RES1               0.0000
      6 C6         205.8818  46.3007  68.7178 C.ar           1 RES1               0.0000
      7 C7         208.0039  45.3434  69.2382 C.ar           1 RES1               0.0000
      8 N8         210.0103  48.2668  68.7253 N.am           1 RES1               0.0000
      9 O9         208.0193  49.1266  69.3362 O.2            1 RES1               0.0000
     10 N10        210.2395  46.8317  66.9038 N.am           1 RES1               0.0000
     11 O11        208.4840  45.8340  65.9158 O.2            1 RES1               0.0000
     12 C12        207.6492  49.1177  65.8178 C.3            1 RES1               0.0000
     13 C13        205.2586  45.3460  69.5042 C.ar           1 RES1               0.0000
     14 C14        207.3787  44.3897  70.0243 C.ar           1 RES1               0.0000
     15 C15        210.8424  47.5961  67.8653 C.2            1 RES1               0.0000
     16 C16        206.0065  44.3897  70.1576 C.ar           1 RES1               0.0000
     17 O17        212.0622  47.6918  67.9650 O.2            1 RES1               0.0000
     18 H18        206.3280  47.4890  66.2550 H              1 RES1               0.0000
     19 H19        206.3179  48.7863  67.4630 H              1 RES1               0.0000
     20 H20        205.2770  47.0468  68.2132 H              1 RES1               0.0000
     21 H21        209.0847  45.3248  69.1487 H              1 RES1               0.0000
     22 H22        210.4485  48.7545  69.5002 H              1 RES1               0.0000
     23 H23        210.8489  46.3753  66.2324 H              1 RES1               0.0000
     24 H24        206.9141  49.6612  65.2280 H              1 RES1               0.0000
     25 H25        208.2720  49.8439  66.3360 H              1 RES1               0.0000
     26 H26        208.2820  48.5543  65.1351 H              1 RES1               0.0000
     27 H27        204.1785  45.3511  69.6069 H              1 RES1               0.0000
     28 H28        207.9712  43.6394  70.5372 H              1 RES1               0.0000
     29 H29        205.5180  43.6417  70.7733 H              1 RES1               0.0000
@<TRIPOS>BOND
    1    1    2 1     
    2    1    3 1     
    3    1    4 1     
    4    1    5 1     
    5    2    6 ar    
    6    2    7 ar    
    7    3    8 1     
    8    3    9 2     
    9    4   10 1     
   10    4   11 2     
   11    5   12 1     
   12    5   18 1     
   13    5   19 1     
   14    6   13 ar    
   15    6   20 1     
   16    7   14 ar    
   17    7   21 1     
   18    8   15 1     
   19    8   22 1     
   20   10   15 1     
   21   10   23 1     
   22   12   24 1     
   23   12   25 1     
   24   12   26 1     
   25   13   16 ar    
   26   13   27 1     
   27   14   16 ar    
   28   14   28 1     
   29   15   17 2     
   30   16   29 1     
@<TRIPOS>SUBSTRUCTURE
      1 RES1           1
@<TRIPOS>SET
DONOR_HYDROGENS      STATIC     ATOMS    <user>   **** ""
2 22 23
ATOM$RED        STATIC     ATOMS    COLORGROUP SYSTEM
2 22 23
@<TRIPOS>COMMENT
> <Gold.Version>
2022.3.0

> <Gold.Id.Protein>
unknown|4v3u_clean|pdb

> <Gold.Protein.RotatedTorsions>
[ 9569 9506 9505 9503 ] final  -95.53 input   60.01 | X-H torsion
[ 7894 7872 7871 7868 ] final -158.37 input   60.03 | X-H torsion
[ 7976 7919 7918 7917 ] final  123.01 input   59.99 | X-H torsion

> <Gold.Protein.ActiveResidues>
 ASP403  THR404  ILE407  TYR408  ALA410  LYS411  TRP414  GLN425  TRP426  SER427 
 LYS428  LEU429  GLN430  VAL431  PHE432  ASP433  TYR453  SER462  ALA463  ILE464 

> <Gold.Protein.RotatedAtoms>
  203.8650   44.5434   60.1416 H   0  0  0  0  0  0  0  0  0  0  0  0  # atno 7894 bound_to 7872
  200.9907   45.5884   67.7122 H   0  0  0  0  0  0  0  0  0  0  0  0  # atno 7976 bound_to 7919
  200.7173   47.1111   67.1156 H   0  0  0  0  0  0  0  0  0  0  0  0  # atno 7977 bound_to 7919
  201.0370   45.8604   66.0772 H   0  0  0  0  0  0  0  0  0  0  0  0  # atno 7978 bound_to 7919
  208.8438   46.1156   72.4033 H   0  0  0  0  0  0  0  0  0  0  0  0  # atno 9569 bound_to 9506
  207.6140   46.5251   73.3875 LP  0  0  0  0  0  0  0  0  0  0  0  0  # atno 27216 bound_to 9506
  207.6192   45.0710   72.6443 LP  0  0  0  0  0  0  0  0  0  0  0  0  # atno 27217 bound_to 9506
  204.0314   44.7973   61.7400 LP  0  0  0  0  0  0  0  0  0  0  0  0  # atno 27226 bound_to 7872
  204.1322   43.2836   61.1358 LP  0  0  0  0  0  0  0  0  0  0  0  0  # atno 27227 bound_to 7872

> <Gold.Score>
     Fitness  S(hb_ext) S(vdw_ext)  S(hb_int)    S(int)      intcor
     32.00       0.16      23.62       0.00      -0.63      -0.79

> <Gold.Goldscore.Fitness>
32.0023

> <Gold.Goldscore.Internal.Vdw>
-0.9772

> <Gold.Goldscore.Internal.Torsion>
-0.4426

> <Gold.Goldscore.External.Vdw>
23.6161

> <Gold.Goldscore.Internal.HBond>
0.0000

> <Gold.Goldscore.External.HBond>
0.1607

> <Gold.Goldscore.Internal.Correction>
-0.7893

> <Gold.Goldscore.Hbonds>
donor molecule, donor type, donor heavy atom, donor atom, acceptor molecule, acceptor atom, score
      P1  H  7999  8053       L1    11  0.05
      P1  H  8143  8189       L1    17  0.03

> <Gold.Goldscore.Internal.Vdw.Weighted>
-0.9772

> <Gold.Goldscore.Internal.Torsion.Weighted>
-0.4426

> <Gold.Goldscore.External.Vdw.Weighted>
32.4721

> <Gold.Goldscore.Internal.HBond.Weighted>
0.0000

> <Gold.Goldscore.External.HBond.Weighted>
0.1607

> <Gold.Goldscore.Internal.Correction.Weighted>
-0.7893

> <Gold.Rescore>
     Score     S(PLP)   S(hbond)     S(cho)   S(metal)  DE(clash)   DE(tors)     intcor
     27.43     -20.75       2.25       0.00       0.00       0.00       0.03       ----

> <Gold.PLP.Fitness>
27.4343

> <Gold.PLP.PLP>
-20.7451

> <Gold.PLP.part.hbond>
-2.7714

> <Gold.PLP.part.metal>
0.0000

> <Gold.PLP.part.buried>
-2.5861

> <Gold.PLP.part.nonpolar>
-16.2539

> <Gold.PLP.part.repulsive>
1.1363

> <Gold.PLP.ligand.clash>
0.0000

> <Gold.PLP.ligand.torsion>
0.0316

> <Gold.PLP.Chemscore.Hbond>
2.2508

> <Gold.PLP.Chemscore.CHOScore>
0.0000

> <Gold.PLP.Chemscore.Metal>
0.0000

> <Gold.Chemscore.Hbonds>
donor molecule, donor type, donor heavy atom, donor atom, acceptor molecule, acceptor atom, score
      L1  H     8    22       P1  8083  0.06
      P1  H  7999  8053       L1    11  0.71

> <Gold.PLP.Chemscore.Internal.Correction>
   9.000000E+99

#       Name:                CT1002167954
#       Creating user name   hitesit
#       Creation time:       Sun Apr 16 22:54:44 2023


#       File generated by GOLD software.
#

@<TRIPOS>MOLECULE
CT1002167954|ligand_prepared|mol2|1|dock2
    29    30     1
SMALL
NO_CHARGES


@<TRIPOS>ATOM
      1 C1         207.9307  47.3342  67.5857 C.3            1 RES1               0.0000
      2 C2         207.2549  46.2775  68.4832 C.ar           1 RES1               0.0000
      3 C3         208.7602  48.2170  68.5136 C.2            1 RES1               0.0000
      4 C4         208.7545  46.5608  66.5621 C.2            1 RES1               0.0000
      5 C5         206.9329  48.2311  66.8167 C.3            1 RES1               0.0000
      6 C6         208.0210  45.3822  69.2237 C.ar           1 RES1               0.0000
      7 C7         205.8691  46.1875  68.5827 C.ar           1 RES1               0.0000
      8 N8         210.1149  48.0620  68.4890 N.am           1 RES1               0.0000
      9 O9         208.2313  49.0091  69.2836 O.2            1 RES1               0.0000
     10 N10        210.1182  46.6875  66.6074 N.am           1 RES1               0.0000
     11 O11        208.2358  45.8297  65.7273 O.2            1 RES1               0.0000
     12 C12        207.5993  49.3081  65.9751 C.3            1 RES1               0.0000
     13 C13        207.4234  44.4333  70.0365 C.ar           1 RES1               0.0000
     14 C14        205.2735  45.2376  69.3960 C.ar           1 RES1               0.0000
     15 C15        210.8373  47.3789  67.5439 C.2            1 RES1               0.0000
     16 C16        206.0495  44.3606  70.1236 C.ar           1 RES1               0.0000
     17 O17        212.0647  47.4013  67.5505 O.2            1 RES1               0.0000
     18 H18        206.3221  47.5983  66.1611 H              1 RES1               0.0000
     19 H19        206.2616  48.7123  67.5387 H              1 RES1               0.0000
     20 H20        209.1036  45.4227  69.1660 H              1 RES1               0.0000
     21 H21        205.2387  46.8664  68.0185 H              1 RES1               0.0000
     22 H22        210.6394  48.4938  69.2432 H              1 RES1               0.0000
     23 H23        210.6461  46.2235  65.8751 H              1 RES1               0.0000
     24 H24        206.8546  49.9085  65.4569 H              1 RES1               0.0000
     25 H25        208.1952  49.9713  66.5987 H              1 RES1               0.0000
     26 H26        208.2553  48.8639  65.2293 H              1 RES1               0.0000
     27 H27        208.0386  43.7445  70.6061 H              1 RES1               0.0000
     28 H28        204.1918  45.1836  69.4610 H              1 RES1               0.0000
     29 H29        205.5816  43.6174  70.7608 H              1 RES1               0.0000
@<TRIPOS>BOND
    1    1    2 1     
    2    1    3 1     
    3    1    4 1     
    4    1    5 1     
    5    2    6 ar    
    6    2    7 ar    
    7    3    8 1     
    8    3    9 2     
    9    4   10 1     
   10    4   11 2     
   11    5   12 1     
   12    5   18 1     
   13    5   19 1     
   14    6   13 ar    
   15    6   20 1     
   16    7   14 ar    
   17    7   21 1     
   18    8   15 1     
   19    8   22 1     
   20   10   15 1     
   21   10   23 1     
   22   12   24 1     
   23   12   25 1     
   24   12   26 1     
   25   13   16 ar    
   26   13   27 1     
   27   14   16 ar    
   28   14   28 1     
   29   15   17 2     
   30   16   29 1     
@<TRIPOS>SUBSTRUCTURE
      1 RES1           1
@<TRIPOS>SET
DONOR_HYDROGENS      STATIC     ATOMS    <user>   **** ""
2 22 23
ATOM$RED        STATIC     ATOMS    COLORGROUP SYSTEM
2 22 23
@<TRIPOS>COMMENT
> <Gold.Version>
2022.3.0

> <Gold.Id.Protein>
unknown|4v3u_clean|pdb

> <Gold.Protein.RotatedTorsions>
[ 9569 9506 9505 9503 ] final  141.22 input   60.01 | X-H torsion
[ 7894 7872 7871 7868 ] final  -59.59 input   60.03 | X-H torsion
[ 7976 7919 7918 7917 ] final   59.44 input   59.99 | X-H torsion

> <Gold.Protein.ActiveResidues>
 ASP403  THR404  ILE407  TYR408  ALA410  LYS411  TRP414  GLN425  TRP426  SER427 
 LYS428  LEU429  GLN430  VAL431  PHE432  ASP433  TYR453  SER462  ALA463  ILE464 

> <Gold.Protein.RotatedAtoms>
  204.0901   43.3007   60.7928 H   0  0  0  0  0  0  0  0  0  0  0  0  # atno 7894 bound_to 7872
  201.1141   45.2730   66.7621 H   0  0  0  0  0  0  0  0  0  0  0  0  # atno 7976 bound_to 7919
  200.8026   46.4585   67.8788 H   0  0  0  0  0  0  0  0  0  0  0  0  # atno 7977 bound_to 7919
  200.8283   46.8285   66.2641 H   0  0  0  0  0  0  0  0  0  0  0  0  # atno 7978 bound_to 7919
  207.5785   46.4852   73.3920 H   0  0  0  0  0  0  0  0  0  0  0  0  # atno 9569 bound_to 9506
  207.6604   45.0590   72.6122 LP  0  0  0  0  0  0  0  0  0  0  0  0  # atno 27216 bound_to 9506
  208.8470   46.1649   72.4240 LP  0  0  0  0  0  0  0  0  0  0  0  0  # atno 27217 bound_to 9506
  203.8505   44.8391   60.3206 LP  0  0  0  0  0  0  0  0  0  0  0  0  # atno 27226 bound_to 7872
  204.0863   44.4937   61.8991 LP  0  0  0  0  0  0  0  0  0  0  0  0  # atno 27227 bound_to 7872

> <Gold.Score>
     Fitness  S(hb_ext) S(vdw_ext)  S(hb_int)    S(int)      intcor
     31.89       0.17      23.19       0.00      -0.16      -0.79

> <Gold.Goldscore.Fitness>
31.8890

> <Gold.Goldscore.Internal.Vdw>
-0.5750

> <Gold.Goldscore.Internal.Torsion>
-0.3767

> <Gold.Goldscore.External.Vdw>
23.1875

> <Gold.Goldscore.Internal.HBond>
0.0000

> <Gold.Goldscore.External.HBond>
0.1657

> <Gold.Goldscore.Internal.Correction>
-0.7922

> <Gold.Goldscore.Hbonds>
donor molecule, donor type, donor heavy atom, donor atom, acceptor molecule, acceptor atom, score
      P1  H  7999  8053       L1    11  0.05
      P1  H  8143  8189       L1    17  0.03

> <Gold.Goldscore.Internal.Vdw.Weighted>
-0.5750

> <Gold.Goldscore.Internal.Torsion.Weighted>
-0.3767

> <Gold.Goldscore.External.Vdw.Weighted>
31.8828

> <Gold.Goldscore.Internal.HBond.Weighted>
0.0000

> <Gold.Goldscore.External.HBond.Weighted>
0.1657

> <Gold.Goldscore.Internal.Correction.Weighted>
-0.7922

> <Gold.Rescore>
     Score     S(PLP)   S(hbond)     S(cho)   S(metal)  DE(clash)   DE(tors)     intcor
     28.13     -22.55       1.86       0.00       0.00       0.00       0.00       ----

> <Gold.PLP.Fitness>
28.1340

> <Gold.PLP.PLP>
-22.5516

> <Gold.PLP.part.hbond>
-3.3290

> <Gold.PLP.part.metal>
0.0000

> <Gold.PLP.part.buried>
-2.4808

> <Gold.PLP.part.nonpolar>
-17.9601

> <Gold.PLP.part.repulsive>
1.0853

> <Gold.PLP.ligand.clash>
0.0000

> <Gold.PLP.ligand.torsion>
0.0048

> <Gold.PLP.Chemscore.Hbond>
1.8640

> <Gold.PLP.Chemscore.CHOScore>
0.0000

> <Gold.PLP.Chemscore.Metal>
0.0000

> <Gold.Chemscore.Hbonds>
donor molecule, donor type, donor heavy atom, donor atom, acceptor molecule, acceptor atom, score
      L1  H     8    22       P1  8083  0.16
      P1  H  7999  8053       L1    11  0.71

> <Gold.PLP.Chemscore.Internal.Correction>
   9.000000E+99

#       Name:                CT1002167954
#       Creating user name   hitesit
#       Creation time:       Sun Apr 16 22:54:44 2023


#       File generated by GOLD software.
#

@<TRIPOS>MOLECULE
CT1002167954|ligand_prepared|mol2|1|dock3
    29    30     1
SMALL
NO_CHARGES


@<TRIPOS>ATOM
      1 C1         206.8877  46.8684  69.3227 C.3            1 RES1               0.0000
      2 C2         206.1184  45.6287  69.8230 C.ar           1 RES1               0.0000
      3 C3         208.2217  46.3572  68.7865 C.2            1 RES1               0.0000
      4 C4         206.0027  47.5226  68.2676 C.2            1 RES1               0.0000
      5 C5         207.1703  47.9153  70.4253 C.3            1 RES1               0.0000
      6 C6         205.1317  45.7524  70.7965 C.ar           1 RES1               0.0000
      7 C7         206.3820  44.3577  69.3194 C.ar           1 RES1               0.0000
      8 N8         208.3903  46.3306  67.4334 N.am           1 RES1               0.0000
      9 O9         209.0974  45.9465  69.5380 O.2            1 RES1               0.0000
     10 N10        206.4523  47.5399  66.9733 N.am           1 RES1               0.0000
     11 O11        204.9125  48.0086  68.5426 O.2            1 RES1               0.0000
     12 C12        208.0986  49.0357  69.9834 C.3            1 RES1               0.0000
     13 C13        204.4316  44.6459  71.2482 C.ar           1 RES1               0.0000
     14 C14        205.6809  43.2525  69.7727 C.ar           1 RES1               0.0000
     15 C15        207.5920  46.9463  66.5032 C.2            1 RES1               0.0000
     16 C16        204.7054  43.3954  70.7364 C.ar           1 RES1               0.0000
     17 O17        207.9017  46.9582  65.3153 O.2            1 RES1               0.0000
     18 H18        206.2180  48.3529  70.7491 H              1 RES1               0.0000
     19 H19        207.6167  47.4070  71.2889 H              1 RES1               0.0000
     20 H20        204.9041  46.7281  71.2128 H              1 RES1               0.0000
     21 H21        207.1459  44.2212  68.5615 H              1 RES1               0.0000
     22 H22        209.1832  45.8043  67.0806 H              1 RES1               0.0000
     23 H23        205.8849  48.0418  66.2977 H              1 RES1               0.0000
     24 H24        208.2636  49.7422  70.7942 H              1 RES1               0.0000
     25 H25        209.0645  48.6386  69.6782 H              1 RES1               0.0000
     26 H26        207.6741  49.5789  69.1417 H              1 RES1               0.0000
     27 H27        203.6658  44.7636  72.0078 H              1 RES1               0.0000
     28 H28        205.9001  42.2701  69.3675 H              1 RES1               0.0000
     29 H29        204.1566  42.5289  71.0901 H              1 RES1               0.0000
@<TRIPOS>BOND
    1    1    2 1     
    2    1    3 1     
    3    1    4 1     
    4    1    5 1     
    5    2    6 ar    
    6    2    7 ar    
    7    3    8 1     
    8    3    9 2     
    9    4   10 1     
   10    4   11 2     
   11    5   12 1     
   12    5   18 1     
   13    5   19 1     
   14    6   13 ar    
   15    6   20 1     
   16    7   14 ar    
   17    7   21 1     
   18    8   15 1     
   19    8   22 1     
   20   10   15 1     
   21   10   23 1     
   22   12   24 1     
   23   12   25 1     
   24   12   26 1     
   25   13   16 ar    
   26   13   27 1     
   27   14   16 ar    
   28   14   28 1     
   29   15   17 2     
   30   16   29 1     
@<TRIPOS>SUBSTRUCTURE
      1 RES1           1
@<TRIPOS>SET
DONOR_HYDROGENS      STATIC     ATOMS    <user>   **** ""
2 22 23
ATOM$RED        STATIC     ATOMS    COLORGROUP SYSTEM
2 22 23
@<TRIPOS>COMMENT
> <Gold.Version>
2022.3.0

> <Gold.Id.Protein>
unknown|4v3u_clean|pdb

> <Gold.Protein.RotatedTorsions>
[ 9569 9506 9505 9503 ] final  146.61 input   60.01 | X-H torsion
[ 7894 7872 7871 7868 ] final   11.48 input   60.03 | X-H torsion
[ 7976 7919 7918 7917 ] final  -12.11 input   59.99 | X-H torsion

> <Gold.Protein.ActiveResidues>
 ASP403  THR404  ILE407  TYR408  ALA410  LYS411  TRP414  GLN425  TRP426  SER427 
 LYS428  LEU429  GLN430  VAL431  PHE432  ASP433  TYR453  SER462  ALA463  ILE464 

> <Gold.Protein.RotatedAtoms>
  204.1643   43.7271   61.7908 H   0  0  0  0  0  0  0  0  0  0  0  0  # atno 7894 bound_to 7872
  200.9921   46.1005   66.0178 H   0  0  0  0  0  0  0  0  0  0  0  0  # atno 7976 bound_to 7919
  201.0354   45.4214   67.5299 H   0  0  0  0  0  0  0  0  0  0  0  0  # atno 7977 bound_to 7919
  200.7174   47.0381   67.3575 H   0  0  0  0  0  0  0  0  0  0  0  0  # atno 7978 bound_to 7919
  207.6443   46.5421   73.3794 H   0  0  0  0  0  0  0  0  0  0  0  0  # atno 9569 bound_to 9506
  207.5931   45.0803   72.6656 LP  0  0  0  0  0  0  0  0  0  0  0  0  # atno 27216 bound_to 9506
  208.8481   46.0863   72.3834 LP  0  0  0  0  0  0  0  0  0  0  0  0  # atno 27217 bound_to 9506
  203.9582   43.7581   60.1772 LP  0  0  0  0  0  0  0  0  0  0  0  0  # atno 27226 bound_to 7872
  203.9038   45.1452   61.0371 LP  0  0  0  0  0  0  0  0  0  0  0  0  # atno 27227 bound_to 7872

> <Gold.Score>
     Fitness  S(hb_ext) S(vdw_ext)  S(hb_int)    S(int)      intcor
     31.29       0.14      23.38       0.00      -1.00      -0.79

> <Gold.Goldscore.Fitness>
31.2901

> <Gold.Goldscore.Internal.Vdw>
-1.3039

> <Gold.Goldscore.Internal.Torsion>
-0.4849

> <Gold.Goldscore.External.Vdw>
23.3782

> <Gold.Goldscore.Internal.HBond>
0.0000

> <Gold.Goldscore.External.HBond>
0.1445

> <Gold.Goldscore.Internal.Correction>
-0.7893

> <Gold.Goldscore.Hbonds>
donor molecule, donor type, donor heavy atom, donor atom, acceptor molecule, acceptor atom, score
      P1  H  7999  8053       L1    17  0.04
      L1  H     8    22       P1  8002  0.03

> <Gold.Goldscore.Internal.Vdw.Weighted>
-1.3039

> <Gold.Goldscore.Internal.Torsion.Weighted>
-0.4849

> <Gold.Goldscore.External.Vdw.Weighted>
32.1451

> <Gold.Goldscore.Internal.HBond.Weighted>
0.0000

> <Gold.Goldscore.External.HBond.Weighted>
0.1445

> <Gold.Goldscore.Internal.Correction.Weighted>
-0.7893

> <Gold.Rescore>
     Score     S(PLP)   S(hbond)     S(cho)   S(metal)  DE(clash)   DE(tors)     intcor
     29.51     -29.02       0.79       0.00       0.00       0.47       0.71       ----

> <Gold.PLP.Fitness>
29.5136

> <Gold.PLP.PLP>
-29.0214

> <Gold.PLP.part.hbond>
-2.7211

> <Gold.PLP.part.metal>
0.0000

> <Gold.PLP.part.buried>
1.0222

> <Gold.PLP.part.nonpolar>
-28.6441

> <Gold.PLP.part.repulsive>
1.3071

> <Gold.PLP.ligand.clash>
0.4669

> <Gold.PLP.ligand.torsion>
0.7099

> <Gold.PLP.Chemscore.Hbond>
0.7930

> <Gold.PLP.Chemscore.CHOScore>
0.0000

> <Gold.PLP.Chemscore.Metal>
0.0000

> <Gold.Chemscore.Hbonds>
donor molecule, donor type, donor heavy atom, donor atom, acceptor molecule, acceptor atom, score
      L1  H     8    22       P1  8002  0.65
      P1  H  6783  6846       L1    17  0.04

> <Gold.PLP.Chemscore.Internal.Correction>
   9.000000E+99

#       Name:                CT1002167954
#       Creating user name   hitesit
#       Creation time:       Sun Apr 16 22:54:47 2023


#       File generated by GOLD software.
#

@<TRIPOS>MOLECULE
CT1002167954|ligand_prepared|mol2|1|dock8
    29    30     1
SMALL
NO_CHARGES


@<TRIPOS>ATOM
      1 C1         206.6140  46.3355  69.5005 C.3            1 RES1               0.0000
      2 C2         205.7131  47.5815  69.6217 C.ar           1 RES1               0.0000
      3 C3         206.7466  46.0461  68.0082 C.2            1 RES1               0.0000
      4 C4         207.9293  46.6921  70.1843 C.2            1 RES1               0.0000
      5 C5         206.0396  45.0791  70.1955 C.3            1 RES1               0.0000
      6 C6         206.2320  48.8548  69.4067 C.ar           1 RES1               0.0000
      7 C7         204.3630  47.4735  69.9444 C.ar           1 RES1               0.0000
      8 N8         207.9357  46.3431  67.4102 N.am           1 RES1               0.0000
      9 O9         205.8089  45.6009  67.3579 O.2            1 RES1               0.0000
     10 N10        209.0564  46.7680  69.4085 N.am           1 RES1               0.0000
     11 O11        207.9969  46.9243  71.3850 O.2            1 RES1               0.0000
     12 C12        207.0094  43.9090  70.2461 C.3            1 RES1               0.0000
     13 C13        205.4296  49.9792  69.5078 C.ar           1 RES1               0.0000
     14 C14        203.5624  48.5993  70.0453 C.ar           1 RES1               0.0000
     15 C15        209.1136  46.6398  68.0474 C.2            1 RES1               0.0000
     16 C16        204.0944  49.8523  69.8267 C.ar           1 RES1               0.0000
     17 O17        210.1565  46.7755  67.4140 O.2            1 RES1               0.0000
     18 H18        205.7511  45.3433  71.2203 H              1 RES1               0.0000
     19 H19        205.1338  44.7640  69.6628 H              1 RES1               0.0000
     20 H20        207.2810  48.9745  69.1572 H              1 RES1               0.0000
     21 H21        203.9231  46.4979  70.1217 H              1 RES1               0.0000
     22 H22        207.9504  46.3449  66.3952 H              1 RES1               0.0000
     23 H23        209.9339  46.9355  69.8903 H              1 RES1               0.0000
     24 H24        206.5565  43.0540  70.7436 H              1 RES1               0.0000
     25 H25        207.2980  43.6035  69.2426 H              1 RES1               0.0000
     26 H26        207.9117  44.1793  70.7908 H              1 RES1               0.0000
     27 H27        205.8535  50.9631  69.3362 H              1 RES1               0.0000
     28 H28        202.5123  48.4947  70.2971 H              1 RES1               0.0000
     29 H29        203.4660  50.7332  69.9055 H              1 RES1               0.0000
@<TRIPOS>BOND
    1    1    2 1     
    2    1    3 1     
    3    1    4 1     
    4    1    5 1     
    5    2    6 ar    
    6    2    7 ar    
    7    3    8 1     
    8    3    9 2     
    9    4   10 1     
   10    4   11 2     
   11    5   12 1     
   12    5   18 1     
   13    5   19 1     
   14    6   13 ar    
   15    6   20 1     
   16    7   14 ar    
   17    7   21 1     
   18    8   15 1     
   19    8   22 1     
   20   10   15 1     
   21   10   23 1     
   22   12   24 1     
   23   12   25 1     
   24   12   26 1     
   25   13   16 ar    
   26   13   27 1     
   27   14   16 ar    
   28   14   28 1     
   29   15   17 2     
   30   16   29 1     
@<TRIPOS>SUBSTRUCTURE
      1 RES1           1
@<TRIPOS>SET
DONOR_HYDROGENS      STATIC     ATOMS    <user>   **** ""
2 22 23
ATOM$RED        STATIC     ATOMS    COLORGROUP SYSTEM
2 22 23
@<TRIPOS>COMMENT
> <Gold.Version>
2022.3.0

> <Gold.Id.Protein>
unknown|4v3u_clean|pdb

> <Gold.Protein.RotatedTorsions>
[ 9569 9506 9505 9503 ] final  163.45 input   60.01 | X-H torsion
[ 7894 7872 7871 7868 ] final -125.11 input   60.03 | X-H torsion
[ 7976 7919 7918 7917 ] final   75.41 input   59.99 | X-H torsion

> <Gold.Protein.ActiveResidues>
 ASP403  THR404  ILE407  TYR408  ALA410  LYS411  TRP414  GLN425  TRP426  SER427 
 LYS428  LEU429  GLN430  VAL431  PHE432  ASP433  TYR453  SER462  ALA463  ILE464 

> <Gold.Protein.RotatedAtoms>
  203.9206   44.0129   60.0929 H   0  0  0  0  0  0  0  0  0  0  0  0  # atno 7894 bound_to 7872
  201.1024   45.2494   67.0268 H   0  0  0  0  0  0  0  0  0  0  0  0  # atno 7976 bound_to 7919
  200.7616   46.6948   67.7644 H   0  0  0  0  0  0  0  0  0  0  0  0  # atno 7977 bound_to 7919
  200.8810   46.6158   66.1138 H   0  0  0  0  0  0  0  0  0  0  0  0  # atno 7978 bound_to 7919
  207.8692   46.6818   73.3081 H   0  0  0  0  0  0  0  0  0  0  0  0  # atno 9569 bound_to 9506
  207.4098   45.1927   72.8388 LP  0  0  0  0  0  0  0  0  0  0  0  0  # atno 27216 bound_to 9506
  208.8049   45.8332   72.2819 LP  0  0  0  0  0  0  0  0  0  0  0  0  # atno 27217 bound_to 9506
  203.9419   45.1005   61.3027 LP  0  0  0  0  0  0  0  0  0  0  0  0  # atno 27226 bound_to 7872
  204.1657   43.5148   61.6222 LP  0  0  0  0  0  0  0  0  0  0  0  0  # atno 27227 bound_to 7872

> <Gold.Score>
     Fitness  S(hb_ext) S(vdw_ext)  S(hb_int)    S(int)      intcor
     26.14       1.14      18.27       0.00      -0.13      -0.76

> <Gold.Goldscore.Fitness>
26.1379

> <Gold.Goldscore.Internal.Vdw>
-0.4197

> <Gold.Goldscore.Internal.Torsion>
-0.4701

> <Gold.Goldscore.External.Vdw>
18.2730

> <Gold.Goldscore.Internal.HBond>
0.0000

> <Gold.Goldscore.External.HBond>
1.1449

> <Gold.Goldscore.Internal.Correction>
-0.7576

> <Gold.Goldscore.Hbonds>
donor molecule, donor type, donor heavy atom, donor atom, acceptor molecule, acceptor atom, score
      L1  H     8    22       P1  7870  0.01
      L1  H    10    23       P1  8083  0.56

> <Gold.Goldscore.Internal.Vdw.Weighted>
-0.4197

> <Gold.Goldscore.Internal.Torsion.Weighted>
-0.4701

> <Gold.Goldscore.External.Vdw.Weighted>
25.1253

> <Gold.Goldscore.Internal.HBond.Weighted>
0.0000

> <Gold.Goldscore.External.HBond.Weighted>
1.1449

> <Gold.Goldscore.Internal.Correction.Weighted>
-0.7576

> <Gold.Rescore>
     Score     S(PLP)   S(hbond)     S(cho)   S(metal)  DE(clash)   DE(tors)     intcor
     21.79     -18.98       1.07       0.00       0.00       0.00       0.21       ----

> <Gold.PLP.Fitness>
21.7878

> <Gold.PLP.PLP>
-18.9833

> <Gold.PLP.part.hbond>
-1.8959

> <Gold.PLP.part.metal>
0.0000

> <Gold.PLP.part.buried>
-1.4179

> <Gold.PLP.part.nonpolar>
-16.2484

> <Gold.PLP.part.repulsive>
0.4234

> <Gold.PLP.ligand.clash>
0.0000

> <Gold.PLP.ligand.torsion>
0.2097

> <Gold.PLP.Chemscore.Hbond>
1.0746

> <Gold.PLP.Chemscore.CHOScore>
0.0000

> <Gold.PLP.Chemscore.Metal>
0.0000

> <Gold.Chemscore.Hbonds>
donor molecule, donor type, donor heavy atom, donor atom, acceptor molecule, acceptor atom, score
      L1  H    10    23       P1  8083  0.86

> <Gold.PLP.Chemscore.Internal.Correction>
   9.000000E+99

#       Name:                CT1002167954
#       Creating user name   hitesit
#       Creation time:       Sun Apr 16 22:54:45 2023


#       File generated by GOLD software.
#

@<TRIPOS>MOLECULE
CT1002167954|ligand_prepared|mol2|1|dock4
    29    30     1
SMALL
NO_CHARGES


@<TRIPOS>ATOM
      1 C1         208.9726  48.1581  68.5919 C.3            1 RES1               0.0000
      2 C2         210.4556  47.9783  68.2082 C.ar           1 RES1               0.0000
      3 C3         208.1757  47.2505  67.6595 C.2            1 RES1               0.0000
      4 C4         208.8651  47.7841  70.0661 C.2            1 RES1               0.0000
      5 C5         208.4560  49.6065  68.4276 C.3            1 RES1               0.0000
      6 C6         210.8720  46.8588  67.4939 C.ar           1 RES1               0.0000
      7 C7         211.4167  48.9229  68.5584 C.ar           1 RES1               0.0000
      8 N8         207.6516  46.1071  68.1865 N.am           1 RES1               0.0000
      9 O9         208.0426  47.5143  66.4708 O.2            1 RES1               0.0000
     10 N10        208.1313  46.6745  70.3951 N.am           1 RES1               0.0000
     11 O11        209.4229  48.4306  70.9442 O.2            1 RES1               0.0000
     12 C12        206.9528  49.7456  68.6102 C.3            1 RES1               0.0000
     13 C13        212.2005  46.6911  67.1400 C.ar           1 RES1               0.0000
     14 C14        212.7448  48.7531  68.2036 C.ar           1 RES1               0.0000
     15 C15        207.5452  45.8015  69.5196 C.2            1 RES1               0.0000
     16 C16        213.1376  47.6382  67.4941 C.ar           1 RES1               0.0000
     17 O17        206.9477  44.7951  69.8901 O.2            1 RES1               0.0000
     18 H18        208.9615  50.2470  69.1607 H              1 RES1               0.0000
     19 H19        208.7248  49.9658  67.4266 H              1 RES1               0.0000
     20 H20        210.1492  46.1017  67.2086 H              1 RES1               0.0000
     21 H21        211.1307  49.8073  69.1175 H              1 RES1               0.0000
     22 H22        207.3071  45.4151  67.5286 H              1 RES1               0.0000
     23 H23        208.0108  46.4816  71.3843 H              1 RES1               0.0000
     24 H24        206.6432  50.7810  68.4845 H              1 RES1               0.0000
     25 H25        206.4180  49.1411  67.8805 H              1 RES1               0.0000
     26 H26        206.6533  49.4206  69.6044 H              1 RES1               0.0000
     27 H27        212.5047  45.8112  66.5828 H              1 RES1               0.0000
     28 H28        213.4790  49.5007  68.4850 H              1 RES1               0.0000
     29 H29        214.1782  47.5068  67.2164 H              1 RES1               0.0000
@<TRIPOS>BOND
    1    1    2 1     
    2    1    3 1     
    3    1    4 1     
    4    1    5 1     
    5    2    6 ar    
    6    2    7 ar    
    7    3    8 1     
    8    3    9 2     
    9    4   10 1     
   10    4   11 2     
   11    5   12 1     
   12    5   18 1     
   13    5   19 1     
   14    6   13 ar    
   15    6   20 1     
   16    7   14 ar    
   17    7   21 1     
   18    8   15 1     
   19    8   22 1     
   20   10   15 1     
   21   10   23 1     
   22   12   24 1     
   23   12   25 1     
   24   12   26 1     
   25   13   16 ar    
   26   13   27 1     
   27   14   16 ar    
   28   14   28 1     
   29   15   17 2     
   30   16   29 1     
@<TRIPOS>SUBSTRUCTURE
      1 RES1           1
@<TRIPOS>SET
DONOR_HYDROGENS      STATIC     ATOMS    <user>   **** ""
2 22 23
ATOM$RED        STATIC     ATOMS    COLORGROUP SYSTEM
2 22 23
@<TRIPOS>COMMENT
> <Gold.Version>
2022.3.0

> <Gold.Id.Protein>
unknown|4v3u_clean|pdb

> <Gold.Protein.RotatedTorsions>
[ 9569 9506 9505 9503 ] final   24.47 input   60.01 | X-H torsion
[ 7894 7872 7871 7868 ] final  121.53 input   60.03 | X-H torsion
[ 7976 7919 7918 7917 ] final -152.58 input   59.99 | X-H torsion

> <Gold.Protein.ActiveResidues>
 ASP403  THR404  ILE407  TYR408  ALA410  LYS411  TRP414  GLN425  TRP426  SER427 
 LYS428  LEU429  GLN430  VAL431  PHE432  ASP433  TYR453  SER462  ALA463  ILE464 

> <Gold.Protein.RotatedAtoms>
  203.9287   45.1212   61.1965 H   0  0  0  0  0  0  0  0  0  0  0  0  # atno 7894 bound_to 7872
  200.7389   46.8479   67.6382 H   0  0  0  0  0  0  0  0  0  0  0  0  # atno 7976 bound_to 7919
  200.9224   46.4319   66.0436 H   0  0  0  0  0  0  0  0  0  0  0  0  # atno 7977 bound_to 7919
  201.0837   45.2799   67.2233 H   0  0  0  0  0  0  0  0  0  0  0  0  # atno 7978 bound_to 7919
  207.6230   45.0760   72.6468 H   0  0  0  0  0  0  0  0  0  0  0  0  # atno 9569 bound_to 9506
  208.8485   46.1179   72.3992 LP  0  0  0  0  0  0  0  0  0  0  0  0  # atno 27216 bound_to 9506
  207.6140   46.5251   73.3875 LP  0  0  0  0  0  0  0  0  0  0  0  0  # atno 27217 bound_to 9506
  204.1663   43.5921   61.6992 LP  0  0  0  0  0  0  0  0  0  0  0  0  # atno 27226 bound_to 7872
  203.9331   43.9067   60.1139 LP  0  0  0  0  0  0  0  0  0  0  0  0  # atno 27227 bound_to 7872

> <Gold.Score>
     Fitness  S(hb_ext) S(vdw_ext)  S(hb_int)    S(int)      intcor
     24.41       1.07      17.85       0.00      -1.21      -0.79

> <Gold.Goldscore.Fitness>
24.4068

> <Gold.Goldscore.Internal.Vdw>
-1.5125

> <Gold.Goldscore.Internal.Torsion>
-0.4818

> <Gold.Goldscore.External.Vdw>
17.8497

> <Gold.Goldscore.Internal.HBond>
0.0000

> <Gold.Goldscore.External.HBond>
1.0685

> <Gold.Goldscore.Internal.Correction>
-0.7893

> <Gold.Goldscore.Hbonds>
donor molecule, donor type, donor heavy atom, donor atom, acceptor molecule, acceptor atom, score
      L1  H    10    23       P1  9506  0.53

> <Gold.Goldscore.Internal.Vdw.Weighted>
-1.5125

> <Gold.Goldscore.Internal.Torsion.Weighted>
-0.4818

> <Gold.Goldscore.External.Vdw.Weighted>
24.5433

> <Gold.Goldscore.Internal.HBond.Weighted>
0.0000

> <Gold.Goldscore.External.HBond.Weighted>
1.0685

> <Gold.Goldscore.Internal.Correction.Weighted>
-0.7893

> <Gold.Rescore>
     Score     S(PLP)   S(hbond)     S(cho)   S(metal)  DE(clash)   DE(tors)     intcor
     23.87     -22.75       1.09       0.00       0.00       0.26       0.94       ----

> <Gold.PLP.Fitness>
23.8705

> <Gold.PLP.PLP>
-22.7457

> <Gold.PLP.part.hbond>
-3.4160

> <Gold.PLP.part.metal>
0.0000

> <Gold.PLP.part.buried>
0.6744

> <Gold.PLP.part.nonpolar>
-20.4944

> <Gold.PLP.part.repulsive>
0.8609

> <Gold.PLP.ligand.clash>
0.2550

> <Gold.PLP.ligand.torsion>
0.9415

> <Gold.PLP.Chemscore.Hbond>
1.0876

> <Gold.PLP.Chemscore.CHOScore>
0.0000

> <Gold.PLP.Chemscore.Metal>
0.0000

> <Gold.PLP.Chemscore.Internal.Correction>
   9.000000E+99

#       Name:                CT1002167954
#       Creating user name   hitesit
#       Creation time:       Sun Apr 16 22:54:46 2023


#       File generated by GOLD software.
#

@<TRIPOS>MOLECULE
CT1002167954|ligand_prepared|mol2|1|dock6
    29    30     1
SMALL
NO_CHARGES


@<TRIPOS>ATOM
      1 C1         203.6152  46.2119  71.1544 C.3            1 RES1               0.0000
      2 C2         203.8723  44.8958  70.3924 C.ar           1 RES1               0.0000
      3 C3         204.9878  46.7920  71.4828 C.2            1 RES1               0.0000
      4 C4         202.7765  47.0847  70.2275 C.2            1 RES1               0.0000
      5 C5         202.8317  46.0266  72.4748 C.3            1 RES1               0.0000
      6 C6         205.1384  44.5999  69.8964 C.ar           1 RES1               0.0000
      7 C7         202.8557  43.9684  70.1803 C.ar           1 RES1               0.0000
      8 N8         205.4035  47.8757  70.7667 N.am           1 RES1               0.0000
      9 O9         205.7110  46.2822  72.3297 O.2            1 RES1               0.0000
     10 N10        203.3378  48.2408  69.7520 N.am           1 RES1               0.0000
     11 O11        201.6405  46.7735  69.8913 O.2            1 RES1               0.0000
     12 C12        202.7091  47.2987  73.2987 C.3            1 RES1               0.0000
     13 C13        205.3804  43.4183  69.2156 C.ar           1 RES1               0.0000
     14 C14        203.0998  42.7874  69.4990 C.ar           1 RES1               0.0000
     15 C15        204.6243  48.6604  69.9550 C.2            1 RES1               0.0000
     16 C16        204.3615  42.5111  69.0168 C.ar           1 RES1               0.0000
     17 O17        205.0731  49.6849  69.4489 O.2            1 RES1               0.0000
     18 H18        201.8249  45.6599  72.2394 H              1 RES1               0.0000
     19 H19        203.3344  45.2615  73.0793 H              1 RES1               0.0000
     20 H20        205.9521  45.3028  70.0410 H              1 RES1               0.0000
     21 H21        201.8550  44.1651  70.5498 H              1 RES1               0.0000
     22 H22        206.3844  48.1258  70.8416 H              1 RES1               0.0000
     23 H23        202.7414  48.8446  69.1952 H              1 RES1               0.0000
     24 H24        202.1509  47.1131  74.2140 H              1 RES1               0.0000
     25 H25        203.6917  47.6775  73.5720 H              1 RES1               0.0000
     26 H26        202.1913  48.0735  72.7371 H              1 RES1               0.0000
     27 H27        206.3748  43.2062  68.8369 H              1 RES1               0.0000
     28 H28        202.2947  42.0766  69.3443 H              1 RES1               0.0000
     29 H29        204.5513  41.5853  68.4838 H              1 RES1               0.0000
@<TRIPOS>BOND
    1    1    2 1     
    2    1    3 1     
    3    1    4 1     
    4    1    5 1     
    5    2    6 ar    
    6    2    7 ar    
    7    3    8 1     
    8    3    9 2     
    9    4   10 1     
   10    4   11 2     
   11    5   12 1     
   12    5   18 1     
   13    5   19 1     
   14    6   13 ar    
   15    6   20 1     
   16    7   14 ar    
   17    7   21 1     
   18    8   15 1     
   19    8   22 1     
   20   10   15 1     
   21   10   23 1     
   22   12   24 1     
   23   12   25 1     
   24   12   26 1     
   25   13   16 ar    
   26   13   27 1     
   27   14   16 ar    
   28   14   28 1     
   29   15   17 2     
   30   16   29 1     
@<TRIPOS>SUBSTRUCTURE
      1 RES1           1
@<TRIPOS>SET
DONOR_HYDROGENS      STATIC     ATOMS    <user>   **** ""
2 22 23
ATOM$RED        STATIC     ATOMS    COLORGROUP SYSTEM
2 22 23
@<TRIPOS>COMMENT
> <Gold.Version>
2022.3.0

> <Gold.Id.Protein>
unknown|4v3u_clean|pdb

> <Gold.Protein.RotatedTorsions>
[ 9569 9506 9505 9503 ] final   73.48 input   60.01 | X-H torsion
[ 7894 7872 7871 7868 ] final    6.81 input   60.03 | X-H torsion
[ 7976 7919 7918 7917 ] final   87.71 input   59.99 | X-H torsion

> <Gold.Protein.ActiveResidues>
 ASP403  THR404  ILE407  TYR408  ALA410  LYS411  TRP414  GLN425  TRP426  SER427 
 LYS428  LEU429  GLN430  VAL431  PHE432  ASP433  TYR453  SER462  ALA463  ILE464 

> <Gold.Protein.RotatedAtoms>
  204.1664   43.6640   61.7481 H   0  0  0  0  0  0  0  0  0  0  0  0  # atno 7894 bound_to 7872
  201.0835   45.2807   67.2287 H   0  0  0  0  0  0  0  0  0  0  0  0  # atno 7976 bound_to 7919
  200.7379   46.8510   67.6337 H   0  0  0  0  0  0  0  0  0  0  0  0  # atno 7977 bound_to 7919
  200.9236   46.4283   66.0426 H   0  0  0  0  0  0  0  0  0  0  0  0  # atno 7978 bound_to 7919
  207.2281   45.5371   73.1314 H   0  0  0  0  0  0  0  0  0  0  0  0  # atno 9569 bound_to 9506
  208.5683   45.4108   72.2167 LP  0  0  0  0  0  0  0  0  0  0  0  0  # atno 27216 bound_to 9506
  208.2919   46.7678   73.0820 LP  0  0  0  0  0  0  0  0  0  0  0  0  # atno 27217 bound_to 9506
  203.9462   43.8263   60.1443 LP  0  0  0  0  0  0  0  0  0  0  0  0  # atno 27226 bound_to 7872
  203.9138   45.1405   61.1131 LP  0  0  0  0  0  0  0  0  0  0  0  0  # atno 27227 bound_to 7872

> <Gold.Score>
     Fitness  S(hb_ext) S(vdw_ext)  S(hb_int)    S(int)      intcor
     24.15       0.18      18.69       0.00      -1.73      -0.77

> <Gold.Goldscore.Fitness>
24.1475

> <Gold.Goldscore.Internal.Vdw>
-2.0602

> <Gold.Goldscore.Internal.Torsion>
-0.4317

> <Gold.Goldscore.External.Vdw>
18.6868

> <Gold.Goldscore.Internal.HBond>
0.0000

> <Gold.Goldscore.External.HBond>
0.1798

> <Gold.Goldscore.Internal.Correction>
-0.7653

> <Gold.Goldscore.Hbonds>
donor molecule, donor type, donor heavy atom, donor atom, acceptor molecule, acceptor atom, score
      P1  H  9506  9569       L1     9  0.09

> <Gold.Goldscore.Internal.Vdw.Weighted>
-2.0602

> <Gold.Goldscore.Internal.Torsion.Weighted>
-0.4317

> <Gold.Goldscore.External.Vdw.Weighted>
25.6944

> <Gold.Goldscore.Internal.HBond.Weighted>
0.0000

> <Gold.Goldscore.External.HBond.Weighted>
0.1798

> <Gold.Goldscore.Internal.Correction.Weighted>
-0.7653

> <Gold.Rescore>
     Score     S(PLP)   S(hbond)     S(cho)   S(metal)  DE(clash)   DE(tors)     intcor
     28.03     -28.18       0.66       0.00       0.00       1.99       0.07       ----

> <Gold.PLP.Fitness>
28.0256

> <Gold.PLP.PLP>
-28.1827

> <Gold.PLP.part.hbond>
-1.0000

> <Gold.PLP.part.metal>
0.0000

> <Gold.PLP.part.buried>
-2.5304

> <Gold.PLP.part.nonpolar>
-25.0508

> <Gold.PLP.part.repulsive>
0.0645

> <Gold.PLP.ligand.clash>
1.9902

> <Gold.PLP.ligand.torsion>
0.0675

> <Gold.PLP.Chemscore.Hbond>
0.6560

> <Gold.PLP.Chemscore.CHOScore>
0.0000

> <Gold.PLP.Chemscore.Metal>
0.0000

> <Gold.Chemscore.Hbonds>
donor molecule, donor type, donor heavy atom, donor atom, acceptor molecule, acceptor atom, score
      P1  H  9506  9569       L1     9  0.64
      P1  H  7919  7977       L1    11  0.04

> <Gold.PLP.Chemscore.Internal.Correction>
   9.000000E+99

#       Name:                CT1002167954
#       Creating user name   hitesit
#       Creation time:       Sun Apr 16 22:54:48 2023


#       File generated by GOLD software.
#

@<TRIPOS>MOLECULE
CT1002167954|ligand_prepared|mol2|1|dock10
    29    30     1
SMALL
NO_CHARGES


@<TRIPOS>ATOM
      1 C1         204.0975  46.7904  71.8559 C.3            1 RES1               0.0000
      2 C2         203.3577  46.6160  73.1980 C.ar           1 RES1               0.0000
      3 C3         205.5679  46.4940  72.1355 C.2            1 RES1               0.0000
      4 C4         203.4423  45.8208  70.8785 C.2            1 RES1               0.0000
      5 C5         203.9876  48.2142  71.2623 C.3            1 RES1               0.0000
      6 C6         203.3388  47.6443  74.1355 C.ar           1 RES1               0.0000
      7 C7         202.6886  45.4358  73.5110 C.ar           1 RES1               0.0000
      8 N8         206.0711  45.3102  71.6825 N.am           1 RES1               0.0000
      9 O9         206.2651  47.2695  72.7781 O.2            1 RES1               0.0000
     10 N10        204.1969  44.7805  70.4031 N.am           1 RES1               0.0000
     11 O11        202.2744  45.9388  70.5287 O.2            1 RES1               0.0000
     12 C12        204.4939  48.3232  69.8327 C.3            1 RES1               0.0000
     13 C13        202.6727  47.4992  75.3411 C.ar           1 RES1               0.0000
     14 C14        202.0232  45.2927  74.7174 C.ar           1 RES1               0.0000
     15 C15        205.4722  44.4636  70.7846 C.2            1 RES1               0.0000
     16 C16        202.0141  46.3237  75.6327 C.ar           1 RES1               0.0000
     17 O17        206.0661  43.4797  70.3528 O.2            1 RES1               0.0000
     18 H18        202.9369  48.5281  71.2897 H              1 RES1               0.0000
     19 H19        204.5605  48.9050  71.8933 H              1 RES1               0.0000
     20 H20        203.8535  48.5758  73.9247 H              1 RES1               0.0000
     21 H21        202.6832  44.6111  72.8065 H              1 RES1               0.0000
     22 H22        206.9763  45.0282  72.0450 H              1 RES1               0.0000
     23 H23        203.7683  44.1874  69.6996 H              1 RES1               0.0000
     24 H24        204.3942  49.3422  69.4648 H              1 RES1               0.0000
     25 H25        205.5434  48.0425  69.7726 H              1 RES1               0.0000
     26 H26        203.9294  47.6678  69.1726 H              1 RES1               0.0000
     27 H27        202.6697  48.3131  76.0587 H              1 RES1               0.0000
     28 H28        201.5068  44.3655  74.9429 H              1 RES1               0.0000
     29 H29        201.4920  46.2104  76.5770 H              1 RES1               0.0000
@<TRIPOS>BOND
    1    1    2 1     
    2    1    3 1     
    3    1    4 1     
    4    1    5 1     
    5    2    6 ar    
    6    2    7 ar    
    7    3    8 1     
    8    3    9 2     
    9    4   10 1     
   10    4   11 2     
   11    5   12 1     
   12    5   18 1     
   13    5   19 1     
   14    6   13 ar    
   15    6   20 1     
   16    7   14 ar    
   17    7   21 1     
   18    8   15 1     
   19    8   22 1     
   20   10   15 1     
   21   10   23 1     
   22   12   24 1     
   23   12   25 1     
   24   12   26 1     
   25   13   16 ar    
   26   13   27 1     
   27   14   16 ar    
   28   14   28 1     
   29   15   17 2     
   30   16   29 1     
@<TRIPOS>SUBSTRUCTURE
      1 RES1           1
@<TRIPOS>SET
DONOR_HYDROGENS      STATIC     ATOMS    <user>   **** ""
2 22 23
ATOM$RED        STATIC     ATOMS    COLORGROUP SYSTEM
2 22 23
@<TRIPOS>COMMENT
> <Gold.Version>
2022.3.0

> <Gold.Id.Protein>
unknown|4v3u_clean|pdb

> <Gold.Protein.RotatedTorsions>
[ 9569 9506 9505 9503 ] final  149.91 input   60.01 | X-H torsion
[ 7894 7872 7871 7868 ] final -147.09 input   60.03 | X-H torsion
[ 7976 7919 7918 7917 ] final -169.40 input   59.99 | X-H torsion

> <Gold.Protein.ActiveResidues>
 ASP403  THR404  ILE407  TYR408  ALA410  LYS411  TRP414  GLN425  TRP426  SER427 
 LYS428  LEU429  GLN430  VAL431  PHE432  ASP433  TYR453  SER462  ALA463  ILE464 

> <Gold.Protein.RotatedAtoms>
  203.8791   44.3674   60.0905 H   0  0  0  0  0  0  0  0  0  0  0  0  # atno 7894 bound_to 7872
  200.7734   46.6269   67.8068 H   0  0  0  0  0  0  0  0  0  0  0  0  # atno 7976 bound_to 7919
  200.8645   46.6833   66.1521 H   0  0  0  0  0  0  0  0  0  0  0  0  # atno 7977 bound_to 7919
  201.1072   45.2495   66.9461 H   0  0  0  0  0  0  0  0  0  0  0  0  # atno 7978 bound_to 7919
  207.6864   46.5743   73.3691 H   0  0  0  0  0  0  0  0  0  0  0  0  # atno 9569 bound_to 9506
  207.5537   45.0970   72.6991 LP  0  0  0  0  0  0  0  0  0  0  0  0  # atno 27216 bound_to 9506
  208.8451   46.0372   72.3603 LP  0  0  0  0  0  0  0  0  0  0  0  0  # atno 27217 bound_to 9506
  204.0004   44.9284   61.6129 LP  0  0  0  0  0  0  0  0  0  0  0  0  # atno 27226 bound_to 7872
  204.1490   43.3298   61.3144 LP  0  0  0  0  0  0  0  0  0  0  0  0  # atno 27227 bound_to 7872

> <Gold.Score>
     Fitness  S(hb_ext) S(vdw_ext)  S(hb_int)    S(int)      intcor
     23.75       0.27      17.71       0.00      -0.87      -0.76

> <Gold.Goldscore.Fitness>
23.7506

> <Gold.Goldscore.Internal.Vdw>
-1.0873

> <Gold.Goldscore.Internal.Torsion>
-0.5360

> <Gold.Goldscore.External.Vdw>
17.7096

> <Gold.Goldscore.Internal.HBond>
0.0000

> <Gold.Goldscore.External.HBond>
0.2656

> <Gold.Goldscore.Internal.Correction>
-0.7576

> <Gold.Goldscore.Hbonds>
donor molecule, donor type, donor heavy atom, donor atom, acceptor molecule, acceptor atom, score
      P1  H  9506  9569       L1     9  0.10
      L1  H     8    22       P1  9506  0.03

> <Gold.Goldscore.Internal.Vdw.Weighted>
-1.0873

> <Gold.Goldscore.Internal.Torsion.Weighted>
-0.5360

> <Gold.Goldscore.External.Vdw.Weighted>
24.3507

> <Gold.Goldscore.Internal.HBond.Weighted>
0.0000

> <Gold.Goldscore.External.HBond.Weighted>
0.2656

> <Gold.Goldscore.Internal.Correction.Weighted>
-0.7576

> <Gold.Rescore>
     Score     S(PLP)   S(hbond)     S(cho)   S(metal)  DE(clash)   DE(tors)     intcor
     23.87     -22.43       1.10       0.00       0.00       0.58       0.64       ----

> <Gold.PLP.Fitness>
23.8718

> <Gold.PLP.PLP>
-22.4331

> <Gold.PLP.part.hbond>
-2.0000

> <Gold.PLP.part.metal>
0.0000

> <Gold.PLP.part.buried>
-4.3998

> <Gold.PLP.part.nonpolar>
-16.5159

> <Gold.PLP.part.repulsive>
0.2068

> <Gold.PLP.ligand.clash>
0.5758

> <Gold.PLP.ligand.torsion>
0.6439

> <Gold.PLP.Chemscore.Hbond>
1.1008

> <Gold.PLP.Chemscore.CHOScore>
0.0000

> <Gold.PLP.Chemscore.Metal>
0.0000

> <Gold.Chemscore.Hbonds>
donor molecule, donor type, donor heavy atom, donor atom, acceptor molecule, acceptor atom, score
      L1  H     8    22       P1  9506  0.70
      P1  H  9506  9569       L1     9  0.62

> <Gold.PLP.Chemscore.Internal.Correction>
   9.000000E+99

#       Name:                CT1002167954
#       Creating user name   hitesit
#       Creation time:       Sun Apr 16 22:54:47 2023


#       File generated by GOLD software.
#

@<TRIPOS>MOLECULE
CT1002167954|ligand_prepared|mol2|1|dock9
    29    30     1
SMALL
NO_CHARGES


@<TRIPOS>ATOM
      1 C1         206.4424  47.5013  69.6945 C.3            1 RES1               0.0000
      2 C2         205.4049  46.5420  70.3126 C.ar           1 RES1               0.0000
      3 C3         207.7574  46.7295  69.6348 C.2            1 RES1               0.0000
      4 C4         205.8934  47.9014  68.3295 C.2            1 RES1               0.0000
      5 C5         206.6673  48.7920  70.5161 C.3            1 RES1               0.0000
      6 C6         204.9461  45.4389  69.5988 C.ar           1 RES1               0.0000
      7 C7         204.9003  46.7451  71.5943 C.ar           1 RES1               0.0000
      8 N8         208.1790  46.2931  68.4135 N.am           1 RES1               0.0000
      9 O9         208.3946  46.4735  70.6491 O.2            1 RES1               0.0000
     10 N10        206.5826  47.4966  67.2165 N.am           1 RES1               0.0000
     11 O11        204.8612  48.5493  68.2073 O.2            1 RES1               0.0000
     12 C12        207.5532  49.8143  69.8216 C.3            1 RES1               0.0000
     13 C13        204.0187  44.5688  70.1474 C.ar           1 RES1               0.0000
     14 C14        203.9727  45.8738  72.1410 C.ar           1 RES1               0.0000
     15 C15        207.6837  46.6846  67.1957 C.2            1 RES1               0.0000
     16 C16        203.5317  44.7853  71.4189 C.ar           1 RES1               0.0000
     17 O17        208.2159  46.3192  66.1514 O.2            1 RES1               0.0000
     18 H18        205.6935  49.2522  70.7243 H              1 RES1               0.0000
     19 H19        207.1238  48.5240  71.4769 H              1 RES1               0.0000
     20 H20        205.3161  45.2537  68.5959 H              1 RES1               0.0000
     21 H21        205.2321  47.5954  72.1804 H              1 RES1               0.0000
     22 H22        208.9322  45.6127  68.4049 H              1 RES1               0.0000
     23 H23        206.2435  47.8318  66.3204 H              1 RES1               0.0000
     24 H24        207.6784  50.7001  70.4408 H              1 RES1               0.0000
     25 H25        208.5386  49.3984  69.6219 H              1 RES1               0.0000
     26 H26        207.1168  50.1223  68.8737 H              1 RES1               0.0000
     27 H27        203.6738  43.7144  69.5745 H              1 RES1               0.0000
     28 H28        203.5917  46.0484  73.1418 H              1 RES1               0.0000
     29 H29        202.8055  44.1033  71.8486 H              1 RES1               0.0000
@<TRIPOS>BOND
    1    1    2 1     
    2    1    3 1     
    3    1    4 1     
    4    1    5 1     
    5    2    6 ar    
    6    2    7 ar    
    7    3    8 1     
    8    3    9 2     
    9    4   10 1     
   10    4   11 2     
   11    5   12 1     
   12    5   18 1     
   13    5   19 1     
   14    6   13 ar    
   15    6   20 1     
   16    7   14 ar    
   17    7   21 1     
   18    8   15 1     
   19    8   22 1     
   20   10   15 1     
   21   10   23 1     
   22   12   24 1     
   23   12   25 1     
   24   12   26 1     
   25   13   16 ar    
   26   13   27 1     
   27   14   16 ar    
   28   14   28 1     
   29   15   17 2     
   30   16   29 1     
@<TRIPOS>SUBSTRUCTURE
      1 RES1           1
@<TRIPOS>SET
DONOR_HYDROGENS      STATIC     ATOMS    <user>   **** ""
2 22 23
ATOM$RED        STATIC     ATOMS    COLORGROUP SYSTEM
2 22 23
@<TRIPOS>COMMENT
> <Gold.Version>
2022.3.0

> <Gold.Id.Protein>
unknown|4v3u_clean|pdb

> <Gold.Protein.RotatedTorsions>
[ 9569 9506 9505 9503 ] final  159.26 input   60.01 | X-H torsion
[ 7894 7872 7871 7868 ] final   28.40 input   60.03 | X-H torsion
[ 7976 7919 7918 7917 ] final -132.62 input   59.99 | X-H torsion

> <Gold.Protein.ActiveResidues>
 ASP403  THR404  ILE407  TYR408  ALA410  LYS411  TRP414  GLN425  TRP426  SER427 
 LYS428  LEU429  GLN430  VAL431  PHE432  ASP433  TYR453  SER462  ALA463  ILE464 

> <Gold.Protein.RotatedAtoms>
  204.1486   43.9794   61.9002 H   0  0  0  0  0  0  0  0  0  0  0  0  # atno 7894 bound_to 7872
  200.7178   47.0355   67.3651 H   0  0  0  0  0  0  0  0  0  0  0  0  # atno 7976 bound_to 7919
  200.9899   46.1082   66.0177 H   0  0  0  0  0  0  0  0  0  0  0  0  # atno 7977 bound_to 7919
  201.0374   45.4160   67.5222 H   0  0  0  0  0  0  0  0  0  0  0  0  # atno 7978 bound_to 7919
  207.8113   46.6530   73.3301 H   0  0  0  0  0  0  0  0  0  0  0  0  # atno 9569 bound_to 9506
  207.4509   45.1586   72.7954 LP  0  0  0  0  0  0  0  0  0  0  0  0  # atno 27216 bound_to 9506
  208.8221   45.8964   72.3031 LP  0  0  0  0  0  0  0  0  0  0  0  0  # atno 27217 bound_to 9506
  204.0040   43.5386   60.3407 LP  0  0  0  0  0  0  0  0  0  0  0  0  # atno 27226 bound_to 7872
  203.8739   45.1105   60.7635 LP  0  0  0  0  0  0  0  0  0  0  0  0  # atno 27227 bound_to 7872

> <Gold.Score>
     Fitness  S(hb_ext) S(vdw_ext)  S(hb_int)    S(int)      intcor
     23.59       0.09      17.13       0.00      -0.05      -0.76

> <Gold.Goldscore.Fitness>
23.5897

> <Gold.Goldscore.Internal.Vdw>
-0.3589

> <Gold.Goldscore.Internal.Torsion>
-0.4509

> <Gold.Goldscore.External.Vdw>
17.1304

> <Gold.Goldscore.Internal.HBond>
0.0000

> <Gold.Goldscore.External.HBond>
0.0876

> <Gold.Goldscore.Internal.Correction>
-0.7576

> <Gold.Goldscore.Hbonds>
donor molecule, donor type, donor heavy atom, donor atom, acceptor molecule, acceptor atom, score
      P1  H  7999  8053       L1    17  0.04

> <Gold.Goldscore.Internal.Vdw.Weighted>
-0.3589

> <Gold.Goldscore.Internal.Torsion.Weighted>
-0.4509

> <Gold.Goldscore.External.Vdw.Weighted>
23.5543

> <Gold.Goldscore.Internal.HBond.Weighted>
0.0000

> <Gold.Goldscore.External.HBond.Weighted>
0.0876

> <Gold.Goldscore.Internal.Correction.Weighted>
-0.7576

> <Gold.Rescore>
     Score     S(PLP)   S(hbond)     S(cho)   S(metal)  DE(clash)   DE(tors)     intcor
     26.17     -24.09       0.86       0.00       0.00       0.00       0.25       ----

> <Gold.PLP.Fitness>
26.1686

> <Gold.PLP.PLP>
-24.0860

> <Gold.PLP.part.hbond>
-2.2184

> <Gold.PLP.part.metal>
0.0000

> <Gold.PLP.part.buried>
-0.7326

> <Gold.PLP.part.nonpolar>
-23.3862

> <Gold.PLP.part.repulsive>
2.1483

> <Gold.PLP.ligand.clash>
0.0000

> <Gold.PLP.ligand.torsion>
0.2547

> <Gold.PLP.Chemscore.Hbond>
0.8640

> <Gold.PLP.Chemscore.CHOScore>
0.0000

> <Gold.PLP.Chemscore.Metal>
0.0000

> <Gold.Chemscore.Hbonds>
donor molecule, donor type, donor heavy atom, donor atom, acceptor molecule, acceptor atom, score
      P1  H  7999  8053       L1    17  0.78

> <Gold.PLP.Chemscore.Internal.Correction>
   9.000000E+99

#       Name:                CT1002167954
#       Creating user name   hitesit
#       Creation time:       Sun Apr 16 22:54:43 2023


#       File generated by GOLD software.
#

@<TRIPOS>MOLECULE
CT1002167954|ligand_prepared|mol2|1|dock1
    29    30     1
SMALL
NO_CHARGES


@<TRIPOS>ATOM
      1 C1         207.2866  47.4472  68.1921 C.3            1 RES1               0.0000
      2 C2         206.7649  48.8881  68.0173 C.ar           1 RES1               0.0000
      3 C3         207.8890  47.0439  66.8494 C.2            1 RES1               0.0000
      4 C4         208.2928  47.4936  69.3366 C.2            1 RES1               0.0000
      5 C5         206.1869  46.4254  68.5638 C.3            1 RES1               0.0000
      6 C6         205.4384  49.1241  67.6687 C.ar           1 RES1               0.0000
      7 C7         207.5960  49.9895  68.2036 C.ar           1 RES1               0.0000
      8 N8         209.2486  46.9880  66.7582 N.am           1 RES1               0.0000
      9 O9         207.1830  46.8167  65.8747 O.2            1 RES1               0.0000
     10 N10        209.6061  47.2298  69.0481 N.am           1 RES1               0.0000
     11 O11        207.9628  47.7726  70.4827 O.2            1 RES1               0.0000
     12 C12        206.7291  45.1023  69.0813 C.3            1 RES1               0.0000
     13 C13        204.9593  50.4144  67.5149 C.ar           1 RES1               0.0000
     14 C14        207.1149  51.2791  68.0490 C.ar           1 RES1               0.0000
     15 C15        210.1345  47.0093  67.8053 C.2            1 RES1               0.0000
     16 C16        205.7969  51.4927  67.7053 C.ar           1 RES1               0.0000
     17 O17        211.3351  46.8335  67.6192 O.2            1 RES1               0.0000
     18 H18        205.5400  46.8666  69.3321 H              1 RES1               0.0000
     19 H19        205.5705  46.2317  67.6773 H              1 RES1               0.0000
     20 H20        204.7650  48.2879  67.5123 H              1 RES1               0.0000
     21 H21        208.6367  49.8454  68.4734 H              1 RES1               0.0000
     22 H22        209.6431  46.9247  65.8251 H              1 RES1               0.0000
     23 H23        210.2495  47.1944  69.8324 H              1 RES1               0.0000
     24 H24        205.9163  44.4222  69.3273 H              1 RES1               0.0000
     25 H25        207.3569  44.6234  68.3328 H              1 RES1               0.0000
     26 H26        207.3266  45.2545  69.9778 H              1 RES1               0.0000
     27 H27        203.9216  50.5771  67.2429 H              1 RES1               0.0000
     28 H28        207.7778  52.1248  68.1993 H              1 RES1               0.0000
     29 H29        205.4213  52.5035  67.5851 H              1 RES1               0.0000
@<TRIPOS>BOND
    1    1    2 1     
    2    1    3 1     
    3    1    4 1     
    4    1    5 1     
    5    2    6 ar    
    6    2    7 ar    
    7    3    8 1     
    8    3    9 2     
    9    4   10 1     
   10    4   11 2     
   11    5   12 1     
   12    5   18 1     
   13    5   19 1     
   14    6   13 ar    
   15    6   20 1     
   16    7   14 ar    
   17    7   21 1     
   18    8   15 1     
   19    8   22 1     
   20   10   15 1     
   21   10   23 1     
   22   12   24 1     
   23   12   25 1     
   24   12   26 1     
   25   13   16 ar    
   26   13   27 1     
   27   14   16 ar    
   28   14   28 1     
   29   15   17 2     
   30   16   29 1     
@<TRIPOS>SUBSTRUCTURE
      1 RES1           1
@<TRIPOS>SET
DONOR_HYDROGENS      STATIC     ATOMS    <user>   **** ""
2 22 23
ATOM$RED        STATIC     ATOMS    COLORGROUP SYSTEM
2 22 23
@<TRIPOS>COMMENT
> <Gold.Version>
2022.3.0

> <Gold.Id.Protein>
unknown|4v3u_clean|pdb

> <Gold.Protein.RotatedTorsions>
[ 9569 9506 9505 9503 ] final -177.30 input   60.01 | X-H torsion
[ 7894 7872 7871 7868 ] final   91.75 input   60.03 | X-H torsion
[ 7976 7919 7918 7917 ] final   23.05 input   59.99 | X-H torsion

> <Gold.Protein.ActiveResidues>
 ASP403  THR404  ILE407  TYR408  ALA410  LYS411  TRP414  GLN425  TRP426  SER427 
 LYS428  LEU429  GLN430  VAL431  PHE432  ASP433  TYR453  SER462  ALA463  ILE464 

> <Gold.Protein.RotatedAtoms>
  204.0059   44.9112   61.6223 H   0  0  0  0  0  0  0  0  0  0  0  0  # atno 7894 bound_to 7872
  201.0841   45.5781   66.2486 H   0  0  0  0  0  0  0  0  0  0  0  0  # atno 7976 bound_to 7919
  200.9222   45.8730   67.8722 H   0  0  0  0  0  0  0  0  0  0  0  0  # atno 7977 bound_to 7919
  200.7388   47.1089   66.7843 H   0  0  0  0  0  0  0  0  0  0  0  0  # atno 7978 bound_to 7919
  208.1420   46.7594   73.1750 H   0  0  0  0  0  0  0  0  0  0  0  0  # atno 9569 bound_to 9506
  207.2658   45.3953   73.0330 LP  0  0  0  0  0  0  0  0  0  0  0  0  # atno 27216 bound_to 9506
  208.6742   45.5525   72.2217 LP  0  0  0  0  0  0  0  0  0  0  0  0  # atno 27217 bound_to 9506
  204.1475   43.3234   61.2964 LP  0  0  0  0  0  0  0  0  0  0  0  0  # atno 27226 bound_to 7872
  203.8741   44.3869   60.0877 LP  0  0  0  0  0  0  0  0  0  0  0  0  # atno 27227 bound_to 7872

> <Gold.Score>
     Fitness  S(hb_ext) S(vdw_ext)  S(hb_int)    S(int)      intcor
     22.99       1.26      16.23       0.00      -0.59      -0.79

> <Gold.Goldscore.Fitness>
22.9885

> <Gold.Goldscore.Internal.Vdw>
-0.6800

> <Gold.Goldscore.Internal.Torsion>
-0.6994

> <Gold.Goldscore.External.Vdw>
16.2299

> <Gold.Goldscore.Internal.HBond>
0.0000

> <Gold.Goldscore.External.HBond>
1.2596

> <Gold.Goldscore.Internal.Correction>
-0.7922

> <Gold.Goldscore.Hbonds>
donor molecule, donor type, donor heavy atom, donor atom, acceptor molecule, acceptor atom, score
      L1  H    10    23       P1  8083  0.63

> <Gold.Goldscore.Internal.Vdw.Weighted>
-0.6800

> <Gold.Goldscore.Internal.Torsion.Weighted>
-0.6994

> <Gold.Goldscore.External.Vdw.Weighted>
22.3161

> <Gold.Goldscore.Internal.HBond.Weighted>
0.0000

> <Gold.Goldscore.External.HBond.Weighted>
1.2596

> <Gold.Goldscore.Internal.Correction.Weighted>
-0.7922

> <Gold.Rescore>
     Score     S(PLP)   S(hbond)     S(cho)   S(metal)  DE(clash)   DE(tors)     intcor
     23.69     -20.67       1.10       0.00       0.00       0.00       0.14       ----

> <Gold.PLP.Fitness>
23.6925

> <Gold.PLP.PLP>
-20.6671

> <Gold.PLP.part.hbond>
-3.0211

> <Gold.PLP.part.metal>
0.0000

> <Gold.PLP.part.buried>
-3.0626

> <Gold.PLP.part.nonpolar>
-16.7956

> <Gold.PLP.part.repulsive>
2.2759

> <Gold.PLP.ligand.clash>
0.0000

> <Gold.PLP.ligand.torsion>
0.1433

> <Gold.PLP.Chemscore.Hbond>
1.1040

> <Gold.PLP.Chemscore.CHOScore>
0.0000

> <Gold.PLP.Chemscore.Metal>
0.0000

> <Gold.Chemscore.Hbonds>
donor molecule, donor type, donor heavy atom, donor atom, acceptor molecule, acceptor atom, score
      L1  H    10    23       P1  8083  0.49

> <Gold.PLP.Chemscore.Internal.Correction>
   9.000000E+99

#       Name:                CT1002167954
#       Creating user name   hitesit
#       Creation time:       Sun Apr 16 22:54:46 2023


#       File generated by GOLD software.
#

@<TRIPOS>MOLECULE
CT1002167954|ligand_prepared|mol2|1|dock7
    29    30     1
SMALL
NO_CHARGES


@<TRIPOS>ATOM
      1 C1         204.1135  46.5813  70.5892 C.3            1 RES1               0.0000
      2 C2         204.3987  47.5127  69.3934 C.ar           1 RES1               0.0000
      3 C3         203.6535  45.2524  69.9970 C.2            1 RES1               0.0000
      4 C4         205.4136  46.4929  71.3806 C.2            1 RES1               0.0000
      5 C5         203.0106  47.1038  71.5390 C.3            1 RES1               0.0000
      6 C6         205.4512  47.2461  68.5228 C.ar           1 RES1               0.0000
      7 C7         203.6178  48.6388  69.1469 C.ar           1 RES1               0.0000
      8 N8         204.5275  44.2063  70.0376 N.am           1 RES1               0.0000
      9 O9         202.5555  45.1350  69.4668 O.2            1 RES1               0.0000
     10 N10        206.0500  45.2805  71.4368 N.am           1 RES1               0.0000
     11 O11        205.9014  47.4659  71.9423 O.2            1 RES1               0.0000
     12 C12        202.8151  46.2483  72.7809 C.3            1 RES1               0.0000
     13 C13        205.7118  48.0736  67.4431 C.ar           1 RES1               0.0000
     14 C14        203.8803  49.4651  68.0667 C.ar           1 RES1               0.0000
     15 C15        205.6819  44.1405  70.7756 C.2            1 RES1               0.0000
     16 C16        204.9264  49.1832  67.2141 C.ar           1 RES1               0.0000
     17 O17        206.3361  43.1032  70.8321 O.2            1 RES1               0.0000
     18 H18        203.2665  48.1242  71.8498 H              1 RES1               0.0000
     19 H19        202.0627  47.1487  70.9885 H              1 RES1               0.0000
     20 H20        206.0815  46.3788  68.6885 H              1 RES1               0.0000
     21 H21        202.7902  48.8807  69.8050 H              1 RES1               0.0000
     22 H22        204.3019  43.3981  69.4664 H              1 RES1               0.0000
     23 H23        206.8744  45.2225  72.0262 H              1 RES1               0.0000
     24 H24        202.0303  46.6591  73.4126 H              1 RES1               0.0000
     25 H25        202.5348  45.2327  72.5095 H              1 RES1               0.0000
     26 H26        203.7315  46.2023  73.3656 H              1 RES1               0.0000
     27 H27        206.5371  47.8481  66.7759 H              1 RES1               0.0000
     28 H28        203.2600  50.3377  67.8906 H              1 RES1               0.0000
     29 H29        205.1306  49.8311  66.3680 H              1 RES1               0.0000
@<TRIPOS>BOND
    1    1    2 1     
    2    1    3 1     
    3    1    4 1     
    4    1    5 1     
    5    2    6 ar    
    6    2    7 ar    
    7    3    8 1     
    8    3    9 2     
    9    4   10 1     
   10    4   11 2     
   11    5   12 1     
   12    5   18 1     
   13    5   19 1     
   14    6   13 ar    
   15    6   20 1     
   16    7   14 ar    
   17    7   21 1     
   18    8   15 1     
   19    8   22 1     
   20   10   15 1     
   21   10   23 1     
   22   12   24 1     
   23   12   25 1     
   24   12   26 1     
   25   13   16 ar    
   26   13   27 1     
   27   14   16 ar    
   28   14   28 1     
   29   15   17 2     
   30   16   29 1     
@<TRIPOS>SUBSTRUCTURE
      1 RES1           1
@<TRIPOS>SET
DONOR_HYDROGENS      STATIC     ATOMS    <user>   **** ""
2 22 23
ATOM$RED        STATIC     ATOMS    COLORGROUP SYSTEM
2 22 23
@<TRIPOS>COMMENT
> <Gold.Version>
2022.3.0

> <Gold.Id.Protein>
unknown|4v3u_clean|pdb

> <Gold.Protein.RotatedTorsions>
[ 9569 9506 9505 9503 ] final  178.87 input   60.01 | X-H torsion
[ 7894 7872 7871 7868 ] final -149.41 input   60.03 | X-H torsion
[ 7976 7919 7918 7917 ] final  -24.09 input   59.99 | X-H torsion

> <Gold.Protein.ActiveResidues>
 ASP403  THR404  ILE407  TYR408  ALA410  LYS411  TRP414  GLN425  TRP426  SER427 
 LYS428  LEU429  GLN430  VAL431  PHE432  ASP433  TYR453  SER462  ALA463  ILE464 

> <Gold.Protein.RotatedAtoms>
  203.8758   44.4042   60.0982 H   0  0  0  0  0  0  0  0  0  0  0  0  # atno 7894 bound_to 7872
  200.9523   46.2963   66.0178 H   0  0  0  0  0  0  0  0  0  0  0  0  # atno 7976 bound_to 7919
  201.0657   45.3256   67.3573 H   0  0  0  0  0  0  0  0  0  0  0  0  # atno 7977 bound_to 7919
  200.7270   46.9381   67.5300 H   0  0  0  0  0  0  0  0  0  0  0  0  # atno 7978 bound_to 7919
  208.0878   46.7515   73.2053 H   0  0  0  0  0  0  0  0  0  0  0  0  # atno 9569 bound_to 9506
  207.2880   45.3496   72.9957 LP  0  0  0  0  0  0  0  0  0  0  0  0  # atno 27216 bound_to 9506
  208.7066   45.6062   72.2286 LP  0  0  0  0  0  0  0  0  0  0  0  0  # atno 27217 bound_to 9506
  204.0067   44.9036   61.6411 LP  0  0  0  0  0  0  0  0  0  0  0  0  # atno 27226 bound_to 7872
  204.1460   43.3175   61.2785 LP  0  0  0  0  0  0  0  0  0  0  0  0  # atno 27227 bound_to 7872

> <Gold.Score>
     Fitness  S(hb_ext) S(vdw_ext)  S(hb_int)    S(int)      intcor
     20.99       0.96      14.60       0.00      -0.04      -0.76

> <Gold.Goldscore.Fitness>
20.9894

> <Gold.Goldscore.Internal.Vdw>
-0.3929

> <Gold.Goldscore.Internal.Torsion>
-0.4070

> <Gold.Goldscore.External.Vdw>
14.5956

> <Gold.Goldscore.Internal.HBond>
0.0000

> <Gold.Goldscore.External.HBond>
0.9628

> <Gold.Goldscore.Internal.Correction>
-0.7576

> <Gold.Goldscore.Hbonds>
donor molecule, donor type, donor heavy atom, donor atom, acceptor molecule, acceptor atom, score
      L1  H    10    23       P1  9506  0.48

> <Gold.Goldscore.Internal.Vdw.Weighted>
-0.3929

> <Gold.Goldscore.Internal.Torsion.Weighted>
-0.4070

> <Gold.Goldscore.External.Vdw.Weighted>
20.0689

> <Gold.Goldscore.Internal.HBond.Weighted>
0.0000

> <Gold.Goldscore.External.HBond.Weighted>
0.9628

> <Gold.Goldscore.Internal.Correction.Weighted>
-0.7576

> <Gold.Rescore>
     Score     S(PLP)   S(hbond)     S(cho)   S(metal)  DE(clash)   DE(tors)     intcor
     20.74     -18.25       1.11       0.00       0.00       0.00       0.42       ----

> <Gold.PLP.Fitness>
20.7427

> <Gold.PLP.PLP>
-18.2477

> <Gold.PLP.part.hbond>
-3.6417

> <Gold.PLP.part.metal>
0.0000

> <Gold.PLP.part.buried>
-2.1573

> <Gold.PLP.part.nonpolar>
-13.7521

> <Gold.PLP.part.repulsive>
0.2352

> <Gold.PLP.ligand.clash>
0.0000

> <Gold.PLP.ligand.torsion>
0.4225

> <Gold.PLP.Chemscore.Hbond>
1.1134

> <Gold.PLP.Chemscore.CHOScore>
0.0000

> <Gold.PLP.Chemscore.Metal>
0.0000

> <Gold.Chemscore.Hbonds>
donor molecule, donor type, donor heavy atom, donor atom, acceptor molecule, acceptor atom, score
      L1  H    10    23       P1  9506  1.00

> <Gold.PLP.Chemscore.Internal.Correction>
   9.000000E+99

