#       Name:                CT1002167954
#       Creating user name   hitesit
#       Creation time:       Sun Apr 16 22:54:46 2023


#       File generated by GOLD software.
#

@<TRIPOS>MOLECULE
CT1002167954|ligand_prepared|mol2|1|dock6
    29    30     1
SMALL
NO_CHARGES


@<TRIPOS>ATOM
      1 C1         203.6152  46.2119  71.1544 C.3            1 RES1               0.0000
      2 C2         203.8723  44.8958  70.3924 C.ar           1 RES1               0.0000
      3 C3         204.9878  46.7920  71.4828 C.2            1 RES1               0.0000
      4 C4         202.7765  47.0847  70.2275 C.2            1 RES1               0.0000
      5 C5         202.8317  46.0266  72.4748 C.3            1 RES1               0.0000
      6 C6         205.1384  44.5999  69.8964 C.ar           1 RES1               0.0000
      7 C7         202.8557  43.9684  70.1803 C.ar           1 RES1               0.0000
      8 N8         205.4035  47.8757  70.7667 N.am           1 RES1               0.0000
      9 O9         205.7110  46.2822  72.3297 O.2            1 RES1               0.0000
     10 N10        203.3378  48.2408  69.7520 N.am           1 RES1               0.0000
     11 O11        201.6405  46.7735  69.8913 O.2            1 RES1               0.0000
     12 C12        202.7091  47.2987  73.2987 C.3            1 RES1               0.0000
     13 C13        205.3804  43.4183  69.2156 C.ar           1 RES1               0.0000
     14 C14        203.0998  42.7874  69.4990 C.ar           1 RES1               0.0000
     15 C15        204.6243  48.6604  69.9550 C.2            1 RES1               0.0000
     16 C16        204.3615  42.5111  69.0168 C.ar           1 RES1               0.0000
     17 O17        205.0731  49.6849  69.4489 O.2            1 RES1               0.0000
     18 H18        201.8249  45.6599  72.2394 H              1 RES1               0.0000
     19 H19        203.3344  45.2615  73.0793 H              1 RES1               0.0000
     20 H20        205.9521  45.3028  70.0410 H              1 RES1               0.0000
     21 H21        201.8550  44.1651  70.5498 H              1 RES1               0.0000
     22 H22        206.3844  48.1258  70.8416 H              1 RES1               0.0000
     23 H23        202.7414  48.8446  69.1952 H              1 RES1               0.0000
     24 H24        202.1509  47.1131  74.2140 H              1 RES1               0.0000
     25 H25        203.6917  47.6775  73.5720 H              1 RES1               0.0000
     26 H26        202.1913  48.0735  72.7371 H              1 RES1               0.0000
     27 H27        206.3748  43.2062  68.8369 H              1 RES1               0.0000
     28 H28        202.2947  42.0766  69.3443 H              1 RES1               0.0000
     29 H29        204.5513  41.5853  68.4838 H              1 RES1               0.0000
@<TRIPOS>BOND
    1    1    2 1     
    2    1    3 1     
    3    1    4 1     
    4    1    5 1     
    5    2    6 ar    
    6    2    7 ar    
    7    3    8 1     
    8    3    9 2     
    9    4   10 1     
   10    4   11 2     
   11    5   12 1     
   12    5   18 1     
   13    5   19 1     
   14    6   13 ar    
   15    6   20 1     
   16    7   14 ar    
   17    7   21 1     
   18    8   15 1     
   19    8   22 1     
   20   10   15 1     
   21   10   23 1     
   22   12   24 1     
   23   12   25 1     
   24   12   26 1     
   25   13   16 ar    
   26   13   27 1     
   27   14   16 ar    
   28   14   28 1     
   29   15   17 2     
   30   16   29 1     
@<TRIPOS>SUBSTRUCTURE
      1 RES1           1
@<TRIPOS>SET
DONOR_HYDROGENS      STATIC     ATOMS    <user>   **** ""
2 22 23
ATOM$RED        STATIC     ATOMS    COLORGROUP SYSTEM
2 22 23
@<TRIPOS>COMMENT
> <Gold.Version>
2022.3.0

> <Gold.Id.Protein>
unknown|4v3u_clean|pdb

> <Gold.Protein.RotatedTorsions>
[ 9569 9506 9505 9503 ] final   73.48 input   60.01 | X-H torsion
[ 7894 7872 7871 7868 ] final    6.81 input   60.03 | X-H torsion
[ 7976 7919 7918 7917 ] final   87.71 input   59.99 | X-H torsion

> <Gold.Protein.ActiveResidues>
 ASP403  THR404  ILE407  TYR408  ALA410  LYS411  TRP414  GLN425  TRP426  SER427 
 LYS428  LEU429  GLN430  VAL431  PHE432  ASP433  TYR453  SER462  ALA463  ILE464 

> <Gold.Protein.RotatedAtoms>
  204.1664   43.6640   61.7481 H   0  0  0  0  0  0  0  0  0  0  0  0  # atno 7894 bound_to 7872
  201.0835   45.2807   67.2287 H   0  0  0  0  0  0  0  0  0  0  0  0  # atno 7976 bound_to 7919
  200.7379   46.8510   67.6337 H   0  0  0  0  0  0  0  0  0  0  0  0  # atno 7977 bound_to 7919
  200.9236   46.4283   66.0426 H   0  0  0  0  0  0  0  0  0  0  0  0  # atno 7978 bound_to 7919
  207.2281   45.5371   73.1314 H   0  0  0  0  0  0  0  0  0  0  0  0  # atno 9569 bound_to 9506
  208.5683   45.4108   72.2167 LP  0  0  0  0  0  0  0  0  0  0  0  0  # atno 27216 bound_to 9506
  208.2919   46.7678   73.0820 LP  0  0  0  0  0  0  0  0  0  0  0  0  # atno 27217 bound_to 9506
  203.9462   43.8263   60.1443 LP  0  0  0  0  0  0  0  0  0  0  0  0  # atno 27226 bound_to 7872
  203.9138   45.1405   61.1131 LP  0  0  0  0  0  0  0  0  0  0  0  0  # atno 27227 bound_to 7872

> <Gold.Score>
     Fitness  S(hb_ext) S(vdw_ext)  S(hb_int)    S(int)      intcor
     24.15       0.18      18.69       0.00      -1.73      -0.77

> <Gold.Goldscore.Fitness>
24.1475

> <Gold.Goldscore.Internal.Vdw>
-2.0602

> <Gold.Goldscore.Internal.Torsion>
-0.4317

> <Gold.Goldscore.External.Vdw>
18.6868

> <Gold.Goldscore.Internal.HBond>
0.0000

> <Gold.Goldscore.External.HBond>
0.1798

> <Gold.Goldscore.Internal.Correction>
-0.7653

> <Gold.Goldscore.Hbonds>
donor molecule, donor type, donor heavy atom, donor atom, acceptor molecule, acceptor atom, score
      P1  H  9506  9569       L1     9  0.09

> <Gold.Goldscore.Internal.Vdw.Weighted>
-2.0602

> <Gold.Goldscore.Internal.Torsion.Weighted>
-0.4317

> <Gold.Goldscore.External.Vdw.Weighted>
25.6944

> <Gold.Goldscore.Internal.HBond.Weighted>
0.0000

> <Gold.Goldscore.External.HBond.Weighted>
0.1798

> <Gold.Goldscore.Internal.Correction.Weighted>
-0.7653

> <Gold.Rescore>
     Score     S(PLP)   S(hbond)     S(cho)   S(metal)  DE(clash)   DE(tors)     intcor
     28.03     -28.18       0.66       0.00       0.00       1.99       0.07       ----

> <Gold.PLP.Fitness>
28.0256

> <Gold.PLP.PLP>
-28.1827

> <Gold.PLP.part.hbond>
-1.0000

> <Gold.PLP.part.metal>
0.0000

> <Gold.PLP.part.buried>
-2.5304

> <Gold.PLP.part.nonpolar>
-25.0508

> <Gold.PLP.part.repulsive>
0.0645

> <Gold.PLP.ligand.clash>
1.9902

> <Gold.PLP.ligand.torsion>
0.0675

> <Gold.PLP.Chemscore.Hbond>
0.6560

> <Gold.PLP.Chemscore.CHOScore>
0.0000

> <Gold.PLP.Chemscore.Metal>
0.0000

> <Gold.Chemscore.Hbonds>
donor molecule, donor type, donor heavy atom, donor atom, acceptor molecule, acceptor atom, score
      P1  H  9506  9569       L1     9  0.64
      P1  H  7919  7977       L1    11  0.04

> <Gold.PLP.Chemscore.Internal.Correction>
   9.000000E+99

