#       Name:                CT1002167954
#       Creating user name   hitesit
#       Creation time:       Sun Apr 16 22:54:48 2023


#       File generated by GOLD software.
#

@<TRIPOS>MOLECULE
CT1002167954|ligand_prepared|mol2|1|dock10
    29    30     1
SMALL
NO_CHARGES


@<TRIPOS>ATOM
      1 C1         204.0975  46.7904  71.8559 C.3            1 RES1               0.0000
      2 C2         203.3577  46.6160  73.1980 C.ar           1 RES1               0.0000
      3 C3         205.5679  46.4940  72.1355 C.2            1 RES1               0.0000
      4 C4         203.4423  45.8208  70.8785 C.2            1 RES1               0.0000
      5 C5         203.9876  48.2142  71.2623 C.3            1 RES1               0.0000
      6 C6         203.3388  47.6443  74.1355 C.ar           1 RES1               0.0000
      7 C7         202.6886  45.4358  73.5110 C.ar           1 RES1               0.0000
      8 N8         206.0711  45.3102  71.6825 N.am           1 RES1               0.0000
      9 O9         206.2651  47.2695  72.7781 O.2            1 RES1               0.0000
     10 N10        204.1969  44.7805  70.4031 N.am           1 RES1               0.0000
     11 O11        202.2744  45.9388  70.5287 O.2            1 RES1               0.0000
     12 C12        204.4939  48.3232  69.8327 C.3            1 RES1               0.0000
     13 C13        202.6727  47.4992  75.3411 C.ar           1 RES1               0.0000
     14 C14        202.0232  45.2927  74.7174 C.ar           1 RES1               0.0000
     15 C15        205.4722  44.4636  70.7846 C.2            1 RES1               0.0000
     16 C16        202.0141  46.3237  75.6327 C.ar           1 RES1               0.0000
     17 O17        206.0661  43.4797  70.3528 O.2            1 RES1               0.0000
     18 H18        202.9369  48.5281  71.2897 H              1 RES1               0.0000
     19 H19        204.5605  48.9050  71.8933 H              1 RES1               0.0000
     20 H20        203.8535  48.5758  73.9247 H              1 RES1               0.0000
     21 H21        202.6832  44.6111  72.8065 H              1 RES1               0.0000
     22 H22        206.9763  45.0282  72.0450 H              1 RES1               0.0000
     23 H23        203.7683  44.1874  69.6996 H              1 RES1               0.0000
     24 H24        204.3942  49.3422  69.4648 H              1 RES1               0.0000
     25 H25        205.5434  48.0425  69.7726 H              1 RES1               0.0000
     26 H26        203.9294  47.6678  69.1726 H              1 RES1               0.0000
     27 H27        202.6697  48.3131  76.0587 H              1 RES1               0.0000
     28 H28        201.5068  44.3655  74.9429 H              1 RES1               0.0000
     29 H29        201.4920  46.2104  76.5770 H              1 RES1               0.0000
@<TRIPOS>BOND
    1    1    2 1     
    2    1    3 1     
    3    1    4 1     
    4    1    5 1     
    5    2    6 ar    
    6    2    7 ar    
    7    3    8 1     
    8    3    9 2     
    9    4   10 1     
   10    4   11 2     
   11    5   12 1     
   12    5   18 1     
   13    5   19 1     
   14    6   13 ar    
   15    6   20 1     
   16    7   14 ar    
   17    7   21 1     
   18    8   15 1     
   19    8   22 1     
   20   10   15 1     
   21   10   23 1     
   22   12   24 1     
   23   12   25 1     
   24   12   26 1     
   25   13   16 ar    
   26   13   27 1     
   27   14   16 ar    
   28   14   28 1     
   29   15   17 2     
   30   16   29 1     
@<TRIPOS>SUBSTRUCTURE
      1 RES1           1
@<TRIPOS>SET
DONOR_HYDROGENS      STATIC     ATOMS    <user>   **** ""
2 22 23
ATOM$RED        STATIC     ATOMS    COLORGROUP SYSTEM
2 22 23
@<TRIPOS>COMMENT
> <Gold.Version>
2022.3.0

> <Gold.Id.Protein>
unknown|4v3u_clean|pdb

> <Gold.Protein.RotatedTorsions>
[ 9569 9506 9505 9503 ] final  149.91 input   60.01 | X-H torsion
[ 7894 7872 7871 7868 ] final -147.09 input   60.03 | X-H torsion
[ 7976 7919 7918 7917 ] final -169.40 input   59.99 | X-H torsion

> <Gold.Protein.ActiveResidues>
 ASP403  THR404  ILE407  TYR408  ALA410  LYS411  TRP414  GLN425  TRP426  SER427 
 LYS428  LEU429  GLN430  VAL431  PHE432  ASP433  TYR453  SER462  ALA463  ILE464 

> <Gold.Protein.RotatedAtoms>
  203.8791   44.3674   60.0905 H   0  0  0  0  0  0  0  0  0  0  0  0  # atno 7894 bound_to 7872
  200.7734   46.6269   67.8068 H   0  0  0  0  0  0  0  0  0  0  0  0  # atno 7976 bound_to 7919
  200.8645   46.6833   66.1521 H   0  0  0  0  0  0  0  0  0  0  0  0  # atno 7977 bound_to 7919
  201.1072   45.2495   66.9461 H   0  0  0  0  0  0  0  0  0  0  0  0  # atno 7978 bound_to 7919
  207.6864   46.5743   73.3691 H   0  0  0  0  0  0  0  0  0  0  0  0  # atno 9569 bound_to 9506
  207.5537   45.0970   72.6991 LP  0  0  0  0  0  0  0  0  0  0  0  0  # atno 27216 bound_to 9506
  208.8451   46.0372   72.3603 LP  0  0  0  0  0  0  0  0  0  0  0  0  # atno 27217 bound_to 9506
  204.0004   44.9284   61.6129 LP  0  0  0  0  0  0  0  0  0  0  0  0  # atno 27226 bound_to 7872
  204.1490   43.3298   61.3144 LP  0  0  0  0  0  0  0  0  0  0  0  0  # atno 27227 bound_to 7872

> <Gold.Score>
     Fitness  S(hb_ext) S(vdw_ext)  S(hb_int)    S(int)      intcor
     23.75       0.27      17.71       0.00      -0.87      -0.76

> <Gold.Goldscore.Fitness>
23.7506

> <Gold.Goldscore.Internal.Vdw>
-1.0873

> <Gold.Goldscore.Internal.Torsion>
-0.5360

> <Gold.Goldscore.External.Vdw>
17.7096

> <Gold.Goldscore.Internal.HBond>
0.0000

> <Gold.Goldscore.External.HBond>
0.2656

> <Gold.Goldscore.Internal.Correction>
-0.7576

> <Gold.Goldscore.Hbonds>
donor molecule, donor type, donor heavy atom, donor atom, acceptor molecule, acceptor atom, score
      P1  H  9506  9569       L1     9  0.10
      L1  H     8    22       P1  9506  0.03

> <Gold.Goldscore.Internal.Vdw.Weighted>
-1.0873

> <Gold.Goldscore.Internal.Torsion.Weighted>
-0.5360

> <Gold.Goldscore.External.Vdw.Weighted>
24.3507

> <Gold.Goldscore.Internal.HBond.Weighted>
0.0000

> <Gold.Goldscore.External.HBond.Weighted>
0.2656

> <Gold.Goldscore.Internal.Correction.Weighted>
-0.7576

> <Gold.Rescore>
     Score     S(PLP)   S(hbond)     S(cho)   S(metal)  DE(clash)   DE(tors)     intcor
     23.87     -22.43       1.10       0.00       0.00       0.58       0.64       ----

> <Gold.PLP.Fitness>
23.8718

> <Gold.PLP.PLP>
-22.4331

> <Gold.PLP.part.hbond>
-2.0000

> <Gold.PLP.part.metal>
0.0000

> <Gold.PLP.part.buried>
-4.3998

> <Gold.PLP.part.nonpolar>
-16.5159

> <Gold.PLP.part.repulsive>
0.2068

> <Gold.PLP.ligand.clash>
0.5758

> <Gold.PLP.ligand.torsion>
0.6439

> <Gold.PLP.Chemscore.Hbond>
1.1008

> <Gold.PLP.Chemscore.CHOScore>
0.0000

> <Gold.PLP.Chemscore.Metal>
0.0000

> <Gold.Chemscore.Hbonds>
donor molecule, donor type, donor heavy atom, donor atom, acceptor molecule, acceptor atom, score
      L1  H     8    22       P1  9506  0.70
      P1  H  9506  9569       L1     9  0.62

> <Gold.PLP.Chemscore.Internal.Correction>
   9.000000E+99

