#       Name:                CT1002167954
#       Creating user name   hitesit
#       Creation time:       Sun Apr 16 22:54:45 2023


#       File generated by GOLD software.
#

@<TRIPOS>MOLECULE
CT1002167954|ligand_prepared|mol2|1|dock5
    29    30     1
SMALL
NO_CHARGES


@<TRIPOS>ATOM
      1 C1         207.9488  47.3800  67.6861 C.3            1 RES1               0.0000
      2 C2         207.2655  46.3160  68.5692 C.ar           1 RES1               0.0000
      3 C3         208.6513  48.3416  68.6401 C.2            1 RES1               0.0000
      4 C4         208.8930  46.6226  66.7591 C.2            1 RES1               0.0000
      5 C5         206.9653  48.1892  66.8089 C.3            1 RES1               0.0000
      6 C6         205.8818  46.3007  68.7178 C.ar           1 RES1               0.0000
      7 C7         208.0039  45.3434  69.2382 C.ar           1 RES1               0.0000
      8 N8         210.0103  48.2668  68.7253 N.am           1 RES1               0.0000
      9 O9         208.0193  49.1266  69.3362 O.2            1 RES1               0.0000
     10 N10        210.2395  46.8317  66.9038 N.am           1 RES1               0.0000
     11 O11        208.4840  45.8340  65.9158 O.2            1 RES1               0.0000
     12 C12        207.6492  49.1177  65.8178 C.3            1 RES1               0.0000
     13 C13        205.2586  45.3460  69.5042 C.ar           1 RES1               0.0000
     14 C14        207.3787  44.3897  70.0243 C.ar           1 RES1               0.0000
     15 C15        210.8424  47.5961  67.8653 C.2            1 RES1               0.0000
     16 C16        206.0065  44.3897  70.1576 C.ar           1 RES1               0.0000
     17 O17        212.0622  47.6918  67.9650 O.2            1 RES1               0.0000
     18 H18        206.3280  47.4890  66.2550 H              1 RES1               0.0000
     19 H19        206.3179  48.7863  67.4630 H              1 RES1               0.0000
     20 H20        205.2770  47.0468  68.2132 H              1 RES1               0.0000
     21 H21        209.0847  45.3248  69.1487 H              1 RES1               0.0000
     22 H22        210.4485  48.7545  69.5002 H              1 RES1               0.0000
     23 H23        210.8489  46.3753  66.2324 H              1 RES1               0.0000
     24 H24        206.9141  49.6612  65.2280 H              1 RES1               0.0000
     25 H25        208.2720  49.8439  66.3360 H              1 RES1               0.0000
     26 H26        208.2820  48.5543  65.1351 H              1 RES1               0.0000
     27 H27        204.1785  45.3511  69.6069 H              1 RES1               0.0000
     28 H28        207.9712  43.6394  70.5372 H              1 RES1               0.0000
     29 H29        205.5180  43.6417  70.7733 H              1 RES1               0.0000
@<TRIPOS>BOND
    1    1    2 1     
    2    1    3 1     
    3    1    4 1     
    4    1    5 1     
    5    2    6 ar    
    6    2    7 ar    
    7    3    8 1     
    8    3    9 2     
    9    4   10 1     
   10    4   11 2     
   11    5   12 1     
   12    5   18 1     
   13    5   19 1     
   14    6   13 ar    
   15    6   20 1     
   16    7   14 ar    
   17    7   21 1     
   18    8   15 1     
   19    8   22 1     
   20   10   15 1     
   21   10   23 1     
   22   12   24 1     
   23   12   25 1     
   24   12   26 1     
   25   13   16 ar    
   26   13   27 1     
   27   14   16 ar    
   28   14   28 1     
   29   15   17 2     
   30   16   29 1     
@<TRIPOS>SUBSTRUCTURE
      1 RES1           1
@<TRIPOS>SET
DONOR_HYDROGENS      STATIC     ATOMS    <user>   **** ""
2 22 23
ATOM$RED        STATIC     ATOMS    COLORGROUP SYSTEM
2 22 23
@<TRIPOS>COMMENT
> <Gold.Version>
2022.3.0

> <Gold.Id.Protein>
unknown|4v3u_clean|pdb

> <Gold.Protein.RotatedTorsions>
[ 9569 9506 9505 9503 ] final  -95.53 input   60.01 | X-H torsion
[ 7894 7872 7871 7868 ] final -158.37 input   60.03 | X-H torsion
[ 7976 7919 7918 7917 ] final  123.01 input   59.99 | X-H torsion

> <Gold.Protein.ActiveResidues>
 ASP403  THR404  ILE407  TYR408  ALA410  LYS411  TRP414  GLN425  TRP426  SER427 
 LYS428  LEU429  GLN430  VAL431  PHE432  ASP433  TYR453  SER462  ALA463  ILE464 

> <Gold.Protein.RotatedAtoms>
  203.8650   44.5434   60.1416 H   0  0  0  0  0  0  0  0  0  0  0  0  # atno 7894 bound_to 7872
  200.9907   45.5884   67.7122 H   0  0  0  0  0  0  0  0  0  0  0  0  # atno 7976 bound_to 7919
  200.7173   47.1111   67.1156 H   0  0  0  0  0  0  0  0  0  0  0  0  # atno 7977 bound_to 7919
  201.0370   45.8604   66.0772 H   0  0  0  0  0  0  0  0  0  0  0  0  # atno 7978 bound_to 7919
  208.8438   46.1156   72.4033 H   0  0  0  0  0  0  0  0  0  0  0  0  # atno 9569 bound_to 9506
  207.6140   46.5251   73.3875 LP  0  0  0  0  0  0  0  0  0  0  0  0  # atno 27216 bound_to 9506
  207.6192   45.0710   72.6443 LP  0  0  0  0  0  0  0  0  0  0  0  0  # atno 27217 bound_to 9506
  204.0314   44.7973   61.7400 LP  0  0  0  0  0  0  0  0  0  0  0  0  # atno 27226 bound_to 7872
  204.1322   43.2836   61.1358 LP  0  0  0  0  0  0  0  0  0  0  0  0  # atno 27227 bound_to 7872

> <Gold.Score>
     Fitness  S(hb_ext) S(vdw_ext)  S(hb_int)    S(int)      intcor
     32.00       0.16      23.62       0.00      -0.63      -0.79

> <Gold.Goldscore.Fitness>
32.0023

> <Gold.Goldscore.Internal.Vdw>
-0.9772

> <Gold.Goldscore.Internal.Torsion>
-0.4426

> <Gold.Goldscore.External.Vdw>
23.6161

> <Gold.Goldscore.Internal.HBond>
0.0000

> <Gold.Goldscore.External.HBond>
0.1607

> <Gold.Goldscore.Internal.Correction>
-0.7893

> <Gold.Goldscore.Hbonds>
donor molecule, donor type, donor heavy atom, donor atom, acceptor molecule, acceptor atom, score
      P1  H  7999  8053       L1    11  0.05
      P1  H  8143  8189       L1    17  0.03

> <Gold.Goldscore.Internal.Vdw.Weighted>
-0.9772

> <Gold.Goldscore.Internal.Torsion.Weighted>
-0.4426

> <Gold.Goldscore.External.Vdw.Weighted>
32.4721

> <Gold.Goldscore.Internal.HBond.Weighted>
0.0000

> <Gold.Goldscore.External.HBond.Weighted>
0.1607

> <Gold.Goldscore.Internal.Correction.Weighted>
-0.7893

> <Gold.Rescore>
     Score     S(PLP)   S(hbond)     S(cho)   S(metal)  DE(clash)   DE(tors)     intcor
     27.43     -20.75       2.25       0.00       0.00       0.00       0.03       ----

> <Gold.PLP.Fitness>
27.4343

> <Gold.PLP.PLP>
-20.7451

> <Gold.PLP.part.hbond>
-2.7714

> <Gold.PLP.part.metal>
0.0000

> <Gold.PLP.part.buried>
-2.5861

> <Gold.PLP.part.nonpolar>
-16.2539

> <Gold.PLP.part.repulsive>
1.1363

> <Gold.PLP.ligand.clash>
0.0000

> <Gold.PLP.ligand.torsion>
0.0316

> <Gold.PLP.Chemscore.Hbond>
2.2508

> <Gold.PLP.Chemscore.CHOScore>
0.0000

> <Gold.PLP.Chemscore.Metal>
0.0000

> <Gold.Chemscore.Hbonds>
donor molecule, donor type, donor heavy atom, donor atom, acceptor molecule, acceptor atom, score
      L1  H     8    22       P1  8083  0.06
      P1  H  7999  8053       L1    11  0.71

> <Gold.PLP.Chemscore.Internal.Correction>
   9.000000E+99

