#       Name:                CT1002167954
#       Creating user name   hitesit
#       Creation time:       Sun Apr 16 22:54:45 2023


#       File generated by GOLD software.
#

@<TRIPOS>MOLECULE
CT1002167954|ligand_prepared|mol2|1|dock4
    29    30     1
SMALL
NO_CHARGES


@<TRIPOS>ATOM
      1 C1         208.9726  48.1581  68.5919 C.3            1 RES1               0.0000
      2 C2         210.4556  47.9783  68.2082 C.ar           1 RES1               0.0000
      3 C3         208.1757  47.2505  67.6595 C.2            1 RES1               0.0000
      4 C4         208.8651  47.7841  70.0661 C.2            1 RES1               0.0000
      5 C5         208.4560  49.6065  68.4276 C.3            1 RES1               0.0000
      6 C6         210.8720  46.8588  67.4939 C.ar           1 RES1               0.0000
      7 C7         211.4167  48.9229  68.5584 C.ar           1 RES1               0.0000
      8 N8         207.6516  46.1071  68.1865 N.am           1 RES1               0.0000
      9 O9         208.0426  47.5143  66.4708 O.2            1 RES1               0.0000
     10 N10        208.1313  46.6745  70.3951 N.am           1 RES1               0.0000
     11 O11        209.4229  48.4306  70.9442 O.2            1 RES1               0.0000
     12 C12        206.9528  49.7456  68.6102 C.3            1 RES1               0.0000
     13 C13        212.2005  46.6911  67.1400 C.ar           1 RES1               0.0000
     14 C14        212.7448  48.7531  68.2036 C.ar           1 RES1               0.0000
     15 C15        207.5452  45.8015  69.5196 C.2            1 RES1               0.0000
     16 C16        213.1376  47.6382  67.4941 C.ar           1 RES1               0.0000
     17 O17        206.9477  44.7951  69.8901 O.2            1 RES1               0.0000
     18 H18        208.9615  50.2470  69.1607 H              1 RES1               0.0000
     19 H19        208.7248  49.9658  67.4266 H              1 RES1               0.0000
     20 H20        210.1492  46.1017  67.2086 H              1 RES1               0.0000
     21 H21        211.1307  49.8073  69.1175 H              1 RES1               0.0000
     22 H22        207.3071  45.4151  67.5286 H              1 RES1               0.0000
     23 H23        208.0108  46.4816  71.3843 H              1 RES1               0.0000
     24 H24        206.6432  50.7810  68.4845 H              1 RES1               0.0000
     25 H25        206.4180  49.1411  67.8805 H              1 RES1               0.0000
     26 H26        206.6533  49.4206  69.6044 H              1 RES1               0.0000
     27 H27        212.5047  45.8112  66.5828 H              1 RES1               0.0000
     28 H28        213.4790  49.5007  68.4850 H              1 RES1               0.0000
     29 H29        214.1782  47.5068  67.2164 H              1 RES1               0.0000
@<TRIPOS>BOND
    1    1    2 1     
    2    1    3 1     
    3    1    4 1     
    4    1    5 1     
    5    2    6 ar    
    6    2    7 ar    
    7    3    8 1     
    8    3    9 2     
    9    4   10 1     
   10    4   11 2     
   11    5   12 1     
   12    5   18 1     
   13    5   19 1     
   14    6   13 ar    
   15    6   20 1     
   16    7   14 ar    
   17    7   21 1     
   18    8   15 1     
   19    8   22 1     
   20   10   15 1     
   21   10   23 1     
   22   12   24 1     
   23   12   25 1     
   24   12   26 1     
   25   13   16 ar    
   26   13   27 1     
   27   14   16 ar    
   28   14   28 1     
   29   15   17 2     
   30   16   29 1     
@<TRIPOS>SUBSTRUCTURE
      1 RES1           1
@<TRIPOS>SET
DONOR_HYDROGENS      STATIC     ATOMS    <user>   **** ""
2 22 23
ATOM$RED        STATIC     ATOMS    COLORGROUP SYSTEM
2 22 23
@<TRIPOS>COMMENT
> <Gold.Version>
2022.3.0

> <Gold.Id.Protein>
unknown|4v3u_clean|pdb

> <Gold.Protein.RotatedTorsions>
[ 9569 9506 9505 9503 ] final   24.47 input   60.01 | X-H torsion
[ 7894 7872 7871 7868 ] final  121.53 input   60.03 | X-H torsion
[ 7976 7919 7918 7917 ] final -152.58 input   59.99 | X-H torsion

> <Gold.Protein.ActiveResidues>
 ASP403  THR404  ILE407  TYR408  ALA410  LYS411  TRP414  GLN425  TRP426  SER427 
 LYS428  LEU429  GLN430  VAL431  PHE432  ASP433  TYR453  SER462  ALA463  ILE464 

> <Gold.Protein.RotatedAtoms>
  203.9287   45.1212   61.1965 H   0  0  0  0  0  0  0  0  0  0  0  0  # atno 7894 bound_to 7872
  200.7389   46.8479   67.6382 H   0  0  0  0  0  0  0  0  0  0  0  0  # atno 7976 bound_to 7919
  200.9224   46.4319   66.0436 H   0  0  0  0  0  0  0  0  0  0  0  0  # atno 7977 bound_to 7919
  201.0837   45.2799   67.2233 H   0  0  0  0  0  0  0  0  0  0  0  0  # atno 7978 bound_to 7919
  207.6230   45.0760   72.6468 H   0  0  0  0  0  0  0  0  0  0  0  0  # atno 9569 bound_to 9506
  208.8485   46.1179   72.3992 LP  0  0  0  0  0  0  0  0  0  0  0  0  # atno 27216 bound_to 9506
  207.6140   46.5251   73.3875 LP  0  0  0  0  0  0  0  0  0  0  0  0  # atno 27217 bound_to 9506
  204.1663   43.5921   61.6992 LP  0  0  0  0  0  0  0  0  0  0  0  0  # atno 27226 bound_to 7872
  203.9331   43.9067   60.1139 LP  0  0  0  0  0  0  0  0  0  0  0  0  # atno 27227 bound_to 7872

> <Gold.Score>
     Fitness  S(hb_ext) S(vdw_ext)  S(hb_int)    S(int)      intcor
     24.41       1.07      17.85       0.00      -1.21      -0.79

> <Gold.Goldscore.Fitness>
24.4068

> <Gold.Goldscore.Internal.Vdw>
-1.5125

> <Gold.Goldscore.Internal.Torsion>
-0.4818

> <Gold.Goldscore.External.Vdw>
17.8497

> <Gold.Goldscore.Internal.HBond>
0.0000

> <Gold.Goldscore.External.HBond>
1.0685

> <Gold.Goldscore.Internal.Correction>
-0.7893

> <Gold.Goldscore.Hbonds>
donor molecule, donor type, donor heavy atom, donor atom, acceptor molecule, acceptor atom, score
      L1  H    10    23       P1  9506  0.53

> <Gold.Goldscore.Internal.Vdw.Weighted>
-1.5125

> <Gold.Goldscore.Internal.Torsion.Weighted>
-0.4818

> <Gold.Goldscore.External.Vdw.Weighted>
24.5433

> <Gold.Goldscore.Internal.HBond.Weighted>
0.0000

> <Gold.Goldscore.External.HBond.Weighted>
1.0685

> <Gold.Goldscore.Internal.Correction.Weighted>
-0.7893

> <Gold.Rescore>
     Score     S(PLP)   S(hbond)     S(cho)   S(metal)  DE(clash)   DE(tors)     intcor
     23.87     -22.75       1.09       0.00       0.00       0.26       0.94       ----

> <Gold.PLP.Fitness>
23.8705

> <Gold.PLP.PLP>
-22.7457

> <Gold.PLP.part.hbond>
-3.4160

> <Gold.PLP.part.metal>
0.0000

> <Gold.PLP.part.buried>
0.6744

> <Gold.PLP.part.nonpolar>
-20.4944

> <Gold.PLP.part.repulsive>
0.8609

> <Gold.PLP.ligand.clash>
0.2550

> <Gold.PLP.ligand.torsion>
0.9415

> <Gold.PLP.Chemscore.Hbond>
1.0876

> <Gold.PLP.Chemscore.CHOScore>
0.0000

> <Gold.PLP.Chemscore.Metal>
0.0000

> <Gold.PLP.Chemscore.Internal.Correction>
   9.000000E+99

