#       Name:                CT1002167954
#       Creating user name   hitesit
#       Creation time:       Sun Apr 16 22:54:47 2023


#       File generated by GOLD software.
#

@<TRIPOS>MOLECULE
CT1002167954|ligand_prepared|mol2|1|dock8
    29    30     1
SMALL
NO_CHARGES


@<TRIPOS>ATOM
      1 C1         206.6140  46.3355  69.5005 C.3            1 RES1               0.0000
      2 C2         205.7131  47.5815  69.6217 C.ar           1 RES1               0.0000
      3 C3         206.7466  46.0461  68.0082 C.2            1 RES1               0.0000
      4 C4         207.9293  46.6921  70.1843 C.2            1 RES1               0.0000
      5 C5         206.0396  45.0791  70.1955 C.3            1 RES1               0.0000
      6 C6         206.2320  48.8548  69.4067 C.ar           1 RES1               0.0000
      7 C7         204.3630  47.4735  69.9444 C.ar           1 RES1               0.0000
      8 N8         207.9357  46.3431  67.4102 N.am           1 RES1               0.0000
      9 O9         205.8089  45.6009  67.3579 O.2            1 RES1               0.0000
     10 N10        209.0564  46.7680  69.4085 N.am           1 RES1               0.0000
     11 O11        207.9969  46.9243  71.3850 O.2            1 RES1               0.0000
     12 C12        207.0094  43.9090  70.2461 C.3            1 RES1               0.0000
     13 C13        205.4296  49.9792  69.5078 C.ar           1 RES1               0.0000
     14 C14        203.5624  48.5993  70.0453 C.ar           1 RES1               0.0000
     15 C15        209.1136  46.6398  68.0474 C.2            1 RES1               0.0000
     16 C16        204.0944  49.8523  69.8267 C.ar           1 RES1               0.0000
     17 O17        210.1565  46.7755  67.4140 O.2            1 RES1               0.0000
     18 H18        205.7511  45.3433  71.2203 H              1 RES1               0.0000
     19 H19        205.1338  44.7640  69.6628 H              1 RES1               0.0000
     20 H20        207.2810  48.9745  69.1572 H              1 RES1               0.0000
     21 H21        203.9231  46.4979  70.1217 H              1 RES1               0.0000
     22 H22        207.9504  46.3449  66.3952 H              1 RES1               0.0000
     23 H23        209.9339  46.9355  69.8903 H              1 RES1               0.0000
     24 H24        206.5565  43.0540  70.7436 H              1 RES1               0.0000
     25 H25        207.2980  43.6035  69.2426 H              1 RES1               0.0000
     26 H26        207.9117  44.1793  70.7908 H              1 RES1               0.0000
     27 H27        205.8535  50.9631  69.3362 H              1 RES1               0.0000
     28 H28        202.5123  48.4947  70.2971 H              1 RES1               0.0000
     29 H29        203.4660  50.7332  69.9055 H              1 RES1               0.0000
@<TRIPOS>BOND
    1    1    2 1     
    2    1    3 1     
    3    1    4 1     
    4    1    5 1     
    5    2    6 ar    
    6    2    7 ar    
    7    3    8 1     
    8    3    9 2     
    9    4   10 1     
   10    4   11 2     
   11    5   12 1     
   12    5   18 1     
   13    5   19 1     
   14    6   13 ar    
   15    6   20 1     
   16    7   14 ar    
   17    7   21 1     
   18    8   15 1     
   19    8   22 1     
   20   10   15 1     
   21   10   23 1     
   22   12   24 1     
   23   12   25 1     
   24   12   26 1     
   25   13   16 ar    
   26   13   27 1     
   27   14   16 ar    
   28   14   28 1     
   29   15   17 2     
   30   16   29 1     
@<TRIPOS>SUBSTRUCTURE
      1 RES1           1
@<TRIPOS>SET
DONOR_HYDROGENS      STATIC     ATOMS    <user>   **** ""
2 22 23
ATOM$RED        STATIC     ATOMS    COLORGROUP SYSTEM
2 22 23
@<TRIPOS>COMMENT
> <Gold.Version>
2022.3.0

> <Gold.Id.Protein>
unknown|4v3u_clean|pdb

> <Gold.Protein.RotatedTorsions>
[ 9569 9506 9505 9503 ] final  163.45 input   60.01 | X-H torsion
[ 7894 7872 7871 7868 ] final -125.11 input   60.03 | X-H torsion
[ 7976 7919 7918 7917 ] final   75.41 input   59.99 | X-H torsion

> <Gold.Protein.ActiveResidues>
 ASP403  THR404  ILE407  TYR408  ALA410  LYS411  TRP414  GLN425  TRP426  SER427 
 LYS428  LEU429  GLN430  VAL431  PHE432  ASP433  TYR453  SER462  ALA463  ILE464 

> <Gold.Protein.RotatedAtoms>
  203.9206   44.0129   60.0929 H   0  0  0  0  0  0  0  0  0  0  0  0  # atno 7894 bound_to 7872
  201.1024   45.2494   67.0268 H   0  0  0  0  0  0  0  0  0  0  0  0  # atno 7976 bound_to 7919
  200.7616   46.6948   67.7644 H   0  0  0  0  0  0  0  0  0  0  0  0  # atno 7977 bound_to 7919
  200.8810   46.6158   66.1138 H   0  0  0  0  0  0  0  0  0  0  0  0  # atno 7978 bound_to 7919
  207.8692   46.6818   73.3081 H   0  0  0  0  0  0  0  0  0  0  0  0  # atno 9569 bound_to 9506
  207.4098   45.1927   72.8388 LP  0  0  0  0  0  0  0  0  0  0  0  0  # atno 27216 bound_to 9506
  208.8049   45.8332   72.2819 LP  0  0  0  0  0  0  0  0  0  0  0  0  # atno 27217 bound_to 9506
  203.9419   45.1005   61.3027 LP  0  0  0  0  0  0  0  0  0  0  0  0  # atno 27226 bound_to 7872
  204.1657   43.5148   61.6222 LP  0  0  0  0  0  0  0  0  0  0  0  0  # atno 27227 bound_to 7872

> <Gold.Score>
     Fitness  S(hb_ext) S(vdw_ext)  S(hb_int)    S(int)      intcor
     26.14       1.14      18.27       0.00      -0.13      -0.76

> <Gold.Goldscore.Fitness>
26.1379

> <Gold.Goldscore.Internal.Vdw>
-0.4197

> <Gold.Goldscore.Internal.Torsion>
-0.4701

> <Gold.Goldscore.External.Vdw>
18.2730

> <Gold.Goldscore.Internal.HBond>
0.0000

> <Gold.Goldscore.External.HBond>
1.1449

> <Gold.Goldscore.Internal.Correction>
-0.7576

> <Gold.Goldscore.Hbonds>
donor molecule, donor type, donor heavy atom, donor atom, acceptor molecule, acceptor atom, score
      L1  H     8    22       P1  7870  0.01
      L1  H    10    23       P1  8083  0.56

> <Gold.Goldscore.Internal.Vdw.Weighted>
-0.4197

> <Gold.Goldscore.Internal.Torsion.Weighted>
-0.4701

> <Gold.Goldscore.External.Vdw.Weighted>
25.1253

> <Gold.Goldscore.Internal.HBond.Weighted>
0.0000

> <Gold.Goldscore.External.HBond.Weighted>
1.1449

> <Gold.Goldscore.Internal.Correction.Weighted>
-0.7576

> <Gold.Rescore>
     Score     S(PLP)   S(hbond)     S(cho)   S(metal)  DE(clash)   DE(tors)     intcor
     21.79     -18.98       1.07       0.00       0.00       0.00       0.21       ----

> <Gold.PLP.Fitness>
21.7878

> <Gold.PLP.PLP>
-18.9833

> <Gold.PLP.part.hbond>
-1.8959

> <Gold.PLP.part.metal>
0.0000

> <Gold.PLP.part.buried>
-1.4179

> <Gold.PLP.part.nonpolar>
-16.2484

> <Gold.PLP.part.repulsive>
0.4234

> <Gold.PLP.ligand.clash>
0.0000

> <Gold.PLP.ligand.torsion>
0.2097

> <Gold.PLP.Chemscore.Hbond>
1.0746

> <Gold.PLP.Chemscore.CHOScore>
0.0000

> <Gold.PLP.Chemscore.Metal>
0.0000

> <Gold.Chemscore.Hbonds>
donor molecule, donor type, donor heavy atom, donor atom, acceptor molecule, acceptor atom, score
      L1  H    10    23       P1  8083  0.86

> <Gold.PLP.Chemscore.Internal.Correction>
   9.000000E+99

