#       Name:                CT1002167954
#       Creating user name   hitesit
#       Creation time:       Sun Apr 16 22:54:44 2023


#       File generated by GOLD software.
#

@<TRIPOS>MOLECULE
CT1002167954|ligand_prepared|mol2|1|dock2
    29    30     1
SMALL
NO_CHARGES


@<TRIPOS>ATOM
      1 C1         207.9307  47.3342  67.5857 C.3            1 RES1               0.0000
      2 C2         207.2549  46.2775  68.4832 C.ar           1 RES1               0.0000
      3 C3         208.7602  48.2170  68.5136 C.2            1 RES1               0.0000
      4 C4         208.7545  46.5608  66.5621 C.2            1 RES1               0.0000
      5 C5         206.9329  48.2311  66.8167 C.3            1 RES1               0.0000
      6 C6         208.0210  45.3822  69.2237 C.ar           1 RES1               0.0000
      7 C7         205.8691  46.1875  68.5827 C.ar           1 RES1               0.0000
      8 N8         210.1149  48.0620  68.4890 N.am           1 RES1               0.0000
      9 O9         208.2313  49.0091  69.2836 O.2            1 RES1               0.0000
     10 N10        210.1182  46.6875  66.6074 N.am           1 RES1               0.0000
     11 O11        208.2358  45.8297  65.7273 O.2            1 RES1               0.0000
     12 C12        207.5993  49.3081  65.9751 C.3            1 RES1               0.0000
     13 C13        207.4234  44.4333  70.0365 C.ar           1 RES1               0.0000
     14 C14        205.2735  45.2376  69.3960 C.ar           1 RES1               0.0000
     15 C15        210.8373  47.3789  67.5439 C.2            1 RES1               0.0000
     16 C16        206.0495  44.3606  70.1236 C.ar           1 RES1               0.0000
     17 O17        212.0647  47.4013  67.5505 O.2            1 RES1               0.0000
     18 H18        206.3221  47.5983  66.1611 H              1 RES1               0.0000
     19 H19        206.2616  48.7123  67.5387 H              1 RES1               0.0000
     20 H20        209.1036  45.4227  69.1660 H              1 RES1               0.0000
     21 H21        205.2387  46.8664  68.0185 H              1 RES1               0.0000
     22 H22        210.6394  48.4938  69.2432 H              1 RES1               0.0000
     23 H23        210.6461  46.2235  65.8751 H              1 RES1               0.0000
     24 H24        206.8546  49.9085  65.4569 H              1 RES1               0.0000
     25 H25        208.1952  49.9713  66.5987 H              1 RES1               0.0000
     26 H26        208.2553  48.8639  65.2293 H              1 RES1               0.0000
     27 H27        208.0386  43.7445  70.6061 H              1 RES1               0.0000
     28 H28        204.1918  45.1836  69.4610 H              1 RES1               0.0000
     29 H29        205.5816  43.6174  70.7608 H              1 RES1               0.0000
@<TRIPOS>BOND
    1    1    2 1     
    2    1    3 1     
    3    1    4 1     
    4    1    5 1     
    5    2    6 ar    
    6    2    7 ar    
    7    3    8 1     
    8    3    9 2     
    9    4   10 1     
   10    4   11 2     
   11    5   12 1     
   12    5   18 1     
   13    5   19 1     
   14    6   13 ar    
   15    6   20 1     
   16    7   14 ar    
   17    7   21 1     
   18    8   15 1     
   19    8   22 1     
   20   10   15 1     
   21   10   23 1     
   22   12   24 1     
   23   12   25 1     
   24   12   26 1     
   25   13   16 ar    
   26   13   27 1     
   27   14   16 ar    
   28   14   28 1     
   29   15   17 2     
   30   16   29 1     
@<TRIPOS>SUBSTRUCTURE
      1 RES1           1
@<TRIPOS>SET
DONOR_HYDROGENS      STATIC     ATOMS    <user>   **** ""
2 22 23
ATOM$RED        STATIC     ATOMS    COLORGROUP SYSTEM
2 22 23
@<TRIPOS>COMMENT
> <Gold.Version>
2022.3.0

> <Gold.Id.Protein>
unknown|4v3u_clean|pdb

> <Gold.Protein.RotatedTorsions>
[ 9569 9506 9505 9503 ] final  141.22 input   60.01 | X-H torsion
[ 7894 7872 7871 7868 ] final  -59.59 input   60.03 | X-H torsion
[ 7976 7919 7918 7917 ] final   59.44 input   59.99 | X-H torsion

> <Gold.Protein.ActiveResidues>
 ASP403  THR404  ILE407  TYR408  ALA410  LYS411  TRP414  GLN425  TRP426  SER427 
 LYS428  LEU429  GLN430  VAL431  PHE432  ASP433  TYR453  SER462  ALA463  ILE464 

> <Gold.Protein.RotatedAtoms>
  204.0901   43.3007   60.7928 H   0  0  0  0  0  0  0  0  0  0  0  0  # atno 7894 bound_to 7872
  201.1141   45.2730   66.7621 H   0  0  0  0  0  0  0  0  0  0  0  0  # atno 7976 bound_to 7919
  200.8026   46.4585   67.8788 H   0  0  0  0  0  0  0  0  0  0  0  0  # atno 7977 bound_to 7919
  200.8283   46.8285   66.2641 H   0  0  0  0  0  0  0  0  0  0  0  0  # atno 7978 bound_to 7919
  207.5785   46.4852   73.3920 H   0  0  0  0  0  0  0  0  0  0  0  0  # atno 9569 bound_to 9506
  207.6604   45.0590   72.6122 LP  0  0  0  0  0  0  0  0  0  0  0  0  # atno 27216 bound_to 9506
  208.8470   46.1649   72.4240 LP  0  0  0  0  0  0  0  0  0  0  0  0  # atno 27217 bound_to 9506
  203.8505   44.8391   60.3206 LP  0  0  0  0  0  0  0  0  0  0  0  0  # atno 27226 bound_to 7872
  204.0863   44.4937   61.8991 LP  0  0  0  0  0  0  0  0  0  0  0  0  # atno 27227 bound_to 7872

> <Gold.Score>
     Fitness  S(hb_ext) S(vdw_ext)  S(hb_int)    S(int)      intcor
     31.89       0.17      23.19       0.00      -0.16      -0.79

> <Gold.Goldscore.Fitness>
31.8890

> <Gold.Goldscore.Internal.Vdw>
-0.5750

> <Gold.Goldscore.Internal.Torsion>
-0.3767

> <Gold.Goldscore.External.Vdw>
23.1875

> <Gold.Goldscore.Internal.HBond>
0.0000

> <Gold.Goldscore.External.HBond>
0.1657

> <Gold.Goldscore.Internal.Correction>
-0.7922

> <Gold.Goldscore.Hbonds>
donor molecule, donor type, donor heavy atom, donor atom, acceptor molecule, acceptor atom, score
      P1  H  7999  8053       L1    11  0.05
      P1  H  8143  8189       L1    17  0.03

> <Gold.Goldscore.Internal.Vdw.Weighted>
-0.5750

> <Gold.Goldscore.Internal.Torsion.Weighted>
-0.3767

> <Gold.Goldscore.External.Vdw.Weighted>
31.8828

> <Gold.Goldscore.Internal.HBond.Weighted>
0.0000

> <Gold.Goldscore.External.HBond.Weighted>
0.1657

> <Gold.Goldscore.Internal.Correction.Weighted>
-0.7922

> <Gold.Rescore>
     Score     S(PLP)   S(hbond)     S(cho)   S(metal)  DE(clash)   DE(tors)     intcor
     28.13     -22.55       1.86       0.00       0.00       0.00       0.00       ----

> <Gold.PLP.Fitness>
28.1340

> <Gold.PLP.PLP>
-22.5516

> <Gold.PLP.part.hbond>
-3.3290

> <Gold.PLP.part.metal>
0.0000

> <Gold.PLP.part.buried>
-2.4808

> <Gold.PLP.part.nonpolar>
-17.9601

> <Gold.PLP.part.repulsive>
1.0853

> <Gold.PLP.ligand.clash>
0.0000

> <Gold.PLP.ligand.torsion>
0.0048

> <Gold.PLP.Chemscore.Hbond>
1.8640

> <Gold.PLP.Chemscore.CHOScore>
0.0000

> <Gold.PLP.Chemscore.Metal>
0.0000

> <Gold.Chemscore.Hbonds>
donor molecule, donor type, donor heavy atom, donor atom, acceptor molecule, acceptor atom, score
      L1  H     8    22       P1  8083  0.16
      P1  H  7999  8053       L1    11  0.71

> <Gold.PLP.Chemscore.Internal.Correction>
   9.000000E+99

