#       Name:                CT1002167954
#       Creating user name   hitesit
#       Creation time:       Sun Apr 16 22:54:43 2023


#       File generated by GOLD software.
#

@<TRIPOS>MOLECULE
CT1002167954|ligand_prepared|mol2|1|dock1
    29    30     1
SMALL
NO_CHARGES


@<TRIPOS>ATOM
      1 C1         207.2866  47.4472  68.1921 C.3            1 RES1               0.0000
      2 C2         206.7649  48.8881  68.0173 C.ar           1 RES1               0.0000
      3 C3         207.8890  47.0439  66.8494 C.2            1 RES1               0.0000
      4 C4         208.2928  47.4936  69.3366 C.2            1 RES1               0.0000
      5 C5         206.1869  46.4254  68.5638 C.3            1 RES1               0.0000
      6 C6         205.4384  49.1241  67.6687 C.ar           1 RES1               0.0000
      7 C7         207.5960  49.9895  68.2036 C.ar           1 RES1               0.0000
      8 N8         209.2486  46.9880  66.7582 N.am           1 RES1               0.0000
      9 O9         207.1830  46.8167  65.8747 O.2            1 RES1               0.0000
     10 N10        209.6061  47.2298  69.0481 N.am           1 RES1               0.0000
     11 O11        207.9628  47.7726  70.4827 O.2            1 RES1               0.0000
     12 C12        206.7291  45.1023  69.0813 C.3            1 RES1               0.0000
     13 C13        204.9593  50.4144  67.5149 C.ar           1 RES1               0.0000
     14 C14        207.1149  51.2791  68.0490 C.ar           1 RES1               0.0000
     15 C15        210.1345  47.0093  67.8053 C.2            1 RES1               0.0000
     16 C16        205.7969  51.4927  67.7053 C.ar           1 RES1               0.0000
     17 O17        211.3351  46.8335  67.6192 O.2            1 RES1               0.0000
     18 H18        205.5400  46.8666  69.3321 H              1 RES1               0.0000
     19 H19        205.5705  46.2317  67.6773 H              1 RES1               0.0000
     20 H20        204.7650  48.2879  67.5123 H              1 RES1               0.0000
     21 H21        208.6367  49.8454  68.4734 H              1 RES1               0.0000
     22 H22        209.6431  46.9247  65.8251 H              1 RES1               0.0000
     23 H23        210.2495  47.1944  69.8324 H              1 RES1               0.0000
     24 H24        205.9163  44.4222  69.3273 H              1 RES1               0.0000
     25 H25        207.3569  44.6234  68.3328 H              1 RES1               0.0000
     26 H26        207.3266  45.2545  69.9778 H              1 RES1               0.0000
     27 H27        203.9216  50.5771  67.2429 H              1 RES1               0.0000
     28 H28        207.7778  52.1248  68.1993 H              1 RES1               0.0000
     29 H29        205.4213  52.5035  67.5851 H              1 RES1               0.0000
@<TRIPOS>BOND
    1    1    2 1     
    2    1    3 1     
    3    1    4 1     
    4    1    5 1     
    5    2    6 ar    
    6    2    7 ar    
    7    3    8 1     
    8    3    9 2     
    9    4   10 1     
   10    4   11 2     
   11    5   12 1     
   12    5   18 1     
   13    5   19 1     
   14    6   13 ar    
   15    6   20 1     
   16    7   14 ar    
   17    7   21 1     
   18    8   15 1     
   19    8   22 1     
   20   10   15 1     
   21   10   23 1     
   22   12   24 1     
   23   12   25 1     
   24   12   26 1     
   25   13   16 ar    
   26   13   27 1     
   27   14   16 ar    
   28   14   28 1     
   29   15   17 2     
   30   16   29 1     
@<TRIPOS>SUBSTRUCTURE
      1 RES1           1
@<TRIPOS>SET
DONOR_HYDROGENS      STATIC     ATOMS    <user>   **** ""
2 22 23
ATOM$RED        STATIC     ATOMS    COLORGROUP SYSTEM
2 22 23
@<TRIPOS>COMMENT
> <Gold.Version>
2022.3.0

> <Gold.Id.Protein>
unknown|4v3u_clean|pdb

> <Gold.Protein.RotatedTorsions>
[ 9569 9506 9505 9503 ] final -177.30 input   60.01 | X-H torsion
[ 7894 7872 7871 7868 ] final   91.75 input   60.03 | X-H torsion
[ 7976 7919 7918 7917 ] final   23.05 input   59.99 | X-H torsion

> <Gold.Protein.ActiveResidues>
 ASP403  THR404  ILE407  TYR408  ALA410  LYS411  TRP414  GLN425  TRP426  SER427 
 LYS428  LEU429  GLN430  VAL431  PHE432  ASP433  TYR453  SER462  ALA463  ILE464 

> <Gold.Protein.RotatedAtoms>
  204.0059   44.9112   61.6223 H   0  0  0  0  0  0  0  0  0  0  0  0  # atno 7894 bound_to 7872
  201.0841   45.5781   66.2486 H   0  0  0  0  0  0  0  0  0  0  0  0  # atno 7976 bound_to 7919
  200.9222   45.8730   67.8722 H   0  0  0  0  0  0  0  0  0  0  0  0  # atno 7977 bound_to 7919
  200.7388   47.1089   66.7843 H   0  0  0  0  0  0  0  0  0  0  0  0  # atno 7978 bound_to 7919
  208.1420   46.7594   73.1750 H   0  0  0  0  0  0  0  0  0  0  0  0  # atno 9569 bound_to 9506
  207.2658   45.3953   73.0330 LP  0  0  0  0  0  0  0  0  0  0  0  0  # atno 27216 bound_to 9506
  208.6742   45.5525   72.2217 LP  0  0  0  0  0  0  0  0  0  0  0  0  # atno 27217 bound_to 9506
  204.1475   43.3234   61.2964 LP  0  0  0  0  0  0  0  0  0  0  0  0  # atno 27226 bound_to 7872
  203.8741   44.3869   60.0877 LP  0  0  0  0  0  0  0  0  0  0  0  0  # atno 27227 bound_to 7872

> <Gold.Score>
     Fitness  S(hb_ext) S(vdw_ext)  S(hb_int)    S(int)      intcor
     22.99       1.26      16.23       0.00      -0.59      -0.79

> <Gold.Goldscore.Fitness>
22.9885

> <Gold.Goldscore.Internal.Vdw>
-0.6800

> <Gold.Goldscore.Internal.Torsion>
-0.6994

> <Gold.Goldscore.External.Vdw>
16.2299

> <Gold.Goldscore.Internal.HBond>
0.0000

> <Gold.Goldscore.External.HBond>
1.2596

> <Gold.Goldscore.Internal.Correction>
-0.7922

> <Gold.Goldscore.Hbonds>
donor molecule, donor type, donor heavy atom, donor atom, acceptor molecule, acceptor atom, score
      L1  H    10    23       P1  8083  0.63

> <Gold.Goldscore.Internal.Vdw.Weighted>
-0.6800

> <Gold.Goldscore.Internal.Torsion.Weighted>
-0.6994

> <Gold.Goldscore.External.Vdw.Weighted>
22.3161

> <Gold.Goldscore.Internal.HBond.Weighted>
0.0000

> <Gold.Goldscore.External.HBond.Weighted>
1.2596

> <Gold.Goldscore.Internal.Correction.Weighted>
-0.7922

> <Gold.Rescore>
     Score     S(PLP)   S(hbond)     S(cho)   S(metal)  DE(clash)   DE(tors)     intcor
     23.69     -20.67       1.10       0.00       0.00       0.00       0.14       ----

> <Gold.PLP.Fitness>
23.6925

> <Gold.PLP.PLP>
-20.6671

> <Gold.PLP.part.hbond>
-3.0211

> <Gold.PLP.part.metal>
0.0000

> <Gold.PLP.part.buried>
-3.0626

> <Gold.PLP.part.nonpolar>
-16.7956

> <Gold.PLP.part.repulsive>
2.2759

> <Gold.PLP.ligand.clash>
0.0000

> <Gold.PLP.ligand.torsion>
0.1433

> <Gold.PLP.Chemscore.Hbond>
1.1040

> <Gold.PLP.Chemscore.CHOScore>
0.0000

> <Gold.PLP.Chemscore.Metal>
0.0000

> <Gold.Chemscore.Hbonds>
donor molecule, donor type, donor heavy atom, donor atom, acceptor molecule, acceptor atom, score
      L1  H    10    23       P1  8083  0.49

> <Gold.PLP.Chemscore.Internal.Correction>
   9.000000E+99

