#       Name:                CT1002167954
#       Creating user name   hitesit
#       Creation time:       Sun Apr 16 22:54:46 2023


#       File generated by GOLD software.
#

@<TRIPOS>MOLECULE
CT1002167954|ligand_prepared|mol2|1|dock7
    29    30     1
SMALL
NO_CHARGES


@<TRIPOS>ATOM
      1 C1         204.1135  46.5813  70.5892 C.3            1 RES1               0.0000
      2 C2         204.3987  47.5127  69.3934 C.ar           1 RES1               0.0000
      3 C3         203.6535  45.2524  69.9970 C.2            1 RES1               0.0000
      4 C4         205.4136  46.4929  71.3806 C.2            1 RES1               0.0000
      5 C5         203.0106  47.1038  71.5390 C.3            1 RES1               0.0000
      6 C6         205.4512  47.2461  68.5228 C.ar           1 RES1               0.0000
      7 C7         203.6178  48.6388  69.1469 C.ar           1 RES1               0.0000
      8 N8         204.5275  44.2063  70.0376 N.am           1 RES1               0.0000
      9 O9         202.5555  45.1350  69.4668 O.2            1 RES1               0.0000
     10 N10        206.0500  45.2805  71.4368 N.am           1 RES1               0.0000
     11 O11        205.9014  47.4659  71.9423 O.2            1 RES1               0.0000
     12 C12        202.8151  46.2483  72.7809 C.3            1 RES1               0.0000
     13 C13        205.7118  48.0736  67.4431 C.ar           1 RES1               0.0000
     14 C14        203.8803  49.4651  68.0667 C.ar           1 RES1               0.0000
     15 C15        205.6819  44.1405  70.7756 C.2            1 RES1               0.0000
     16 C16        204.9264  49.1832  67.2141 C.ar           1 RES1               0.0000
     17 O17        206.3361  43.1032  70.8321 O.2            1 RES1               0.0000
     18 H18        203.2665  48.1242  71.8498 H              1 RES1               0.0000
     19 H19        202.0627  47.1487  70.9885 H              1 RES1               0.0000
     20 H20        206.0815  46.3788  68.6885 H              1 RES1               0.0000
     21 H21        202.7902  48.8807  69.8050 H              1 RES1               0.0000
     22 H22        204.3019  43.3981  69.4664 H              1 RES1               0.0000
     23 H23        206.8744  45.2225  72.0262 H              1 RES1               0.0000
     24 H24        202.0303  46.6591  73.4126 H              1 RES1               0.0000
     25 H25        202.5348  45.2327  72.5095 H              1 RES1               0.0000
     26 H26        203.7315  46.2023  73.3656 H              1 RES1               0.0000
     27 H27        206.5371  47.8481  66.7759 H              1 RES1               0.0000
     28 H28        203.2600  50.3377  67.8906 H              1 RES1               0.0000
     29 H29        205.1306  49.8311  66.3680 H              1 RES1               0.0000
@<TRIPOS>BOND
    1    1    2 1     
    2    1    3 1     
    3    1    4 1     
    4    1    5 1     
    5    2    6 ar    
    6    2    7 ar    
    7    3    8 1     
    8    3    9 2     
    9    4   10 1     
   10    4   11 2     
   11    5   12 1     
   12    5   18 1     
   13    5   19 1     
   14    6   13 ar    
   15    6   20 1     
   16    7   14 ar    
   17    7   21 1     
   18    8   15 1     
   19    8   22 1     
   20   10   15 1     
   21   10   23 1     
   22   12   24 1     
   23   12   25 1     
   24   12   26 1     
   25   13   16 ar    
   26   13   27 1     
   27   14   16 ar    
   28   14   28 1     
   29   15   17 2     
   30   16   29 1     
@<TRIPOS>SUBSTRUCTURE
      1 RES1           1
@<TRIPOS>SET
DONOR_HYDROGENS      STATIC     ATOMS    <user>   **** ""
2 22 23
ATOM$RED        STATIC     ATOMS    COLORGROUP SYSTEM
2 22 23
@<TRIPOS>COMMENT
> <Gold.Version>
2022.3.0

> <Gold.Id.Protein>
unknown|4v3u_clean|pdb

> <Gold.Protein.RotatedTorsions>
[ 9569 9506 9505 9503 ] final  178.87 input   60.01 | X-H torsion
[ 7894 7872 7871 7868 ] final -149.41 input   60.03 | X-H torsion
[ 7976 7919 7918 7917 ] final  -24.09 input   59.99 | X-H torsion

> <Gold.Protein.ActiveResidues>
 ASP403  THR404  ILE407  TYR408  ALA410  LYS411  TRP414  GLN425  TRP426  SER427 
 LYS428  LEU429  GLN430  VAL431  PHE432  ASP433  TYR453  SER462  ALA463  ILE464 

> <Gold.Protein.RotatedAtoms>
  203.8758   44.4042   60.0982 H   0  0  0  0  0  0  0  0  0  0  0  0  # atno 7894 bound_to 7872
  200.9523   46.2963   66.0178 H   0  0  0  0  0  0  0  0  0  0  0  0  # atno 7976 bound_to 7919
  201.0657   45.3256   67.3573 H   0  0  0  0  0  0  0  0  0  0  0  0  # atno 7977 bound_to 7919
  200.7270   46.9381   67.5300 H   0  0  0  0  0  0  0  0  0  0  0  0  # atno 7978 bound_to 7919
  208.0878   46.7515   73.2053 H   0  0  0  0  0  0  0  0  0  0  0  0  # atno 9569 bound_to 9506
  207.2880   45.3496   72.9957 LP  0  0  0  0  0  0  0  0  0  0  0  0  # atno 27216 bound_to 9506
  208.7066   45.6062   72.2286 LP  0  0  0  0  0  0  0  0  0  0  0  0  # atno 27217 bound_to 9506
  204.0067   44.9036   61.6411 LP  0  0  0  0  0  0  0  0  0  0  0  0  # atno 27226 bound_to 7872
  204.1460   43.3175   61.2785 LP  0  0  0  0  0  0  0  0  0  0  0  0  # atno 27227 bound_to 7872

> <Gold.Score>
     Fitness  S(hb_ext) S(vdw_ext)  S(hb_int)    S(int)      intcor
     20.99       0.96      14.60       0.00      -0.04      -0.76

> <Gold.Goldscore.Fitness>
20.9894

> <Gold.Goldscore.Internal.Vdw>
-0.3929

> <Gold.Goldscore.Internal.Torsion>
-0.4070

> <Gold.Goldscore.External.Vdw>
14.5956

> <Gold.Goldscore.Internal.HBond>
0.0000

> <Gold.Goldscore.External.HBond>
0.9628

> <Gold.Goldscore.Internal.Correction>
-0.7576

> <Gold.Goldscore.Hbonds>
donor molecule, donor type, donor heavy atom, donor atom, acceptor molecule, acceptor atom, score
      L1  H    10    23       P1  9506  0.48

> <Gold.Goldscore.Internal.Vdw.Weighted>
-0.3929

> <Gold.Goldscore.Internal.Torsion.Weighted>
-0.4070

> <Gold.Goldscore.External.Vdw.Weighted>
20.0689

> <Gold.Goldscore.Internal.HBond.Weighted>
0.0000

> <Gold.Goldscore.External.HBond.Weighted>
0.9628

> <Gold.Goldscore.Internal.Correction.Weighted>
-0.7576

> <Gold.Rescore>
     Score     S(PLP)   S(hbond)     S(cho)   S(metal)  DE(clash)   DE(tors)     intcor
     20.74     -18.25       1.11       0.00       0.00       0.00       0.42       ----

> <Gold.PLP.Fitness>
20.7427

> <Gold.PLP.PLP>
-18.2477

> <Gold.PLP.part.hbond>
-3.6417

> <Gold.PLP.part.metal>
0.0000

> <Gold.PLP.part.buried>
-2.1573

> <Gold.PLP.part.nonpolar>
-13.7521

> <Gold.PLP.part.repulsive>
0.2352

> <Gold.PLP.ligand.clash>
0.0000

> <Gold.PLP.ligand.torsion>
0.4225

> <Gold.PLP.Chemscore.Hbond>
1.1134

> <Gold.PLP.Chemscore.CHOScore>
0.0000

> <Gold.PLP.Chemscore.Metal>
0.0000

> <Gold.Chemscore.Hbonds>
donor molecule, donor type, donor heavy atom, donor atom, acceptor molecule, acceptor atom, score
      L1  H    10    23       P1  9506  1.00

> <Gold.PLP.Chemscore.Internal.Correction>
   9.000000E+99

