#       Name:                CT1002167954
#       Creating user name   hitesit
#       Creation time:       Sun Apr 16 22:54:47 2023


#       File generated by GOLD software.
#

@<TRIPOS>MOLECULE
CT1002167954|ligand_prepared|mol2|1|dock9
    29    30     1
SMALL
NO_CHARGES


@<TRIPOS>ATOM
      1 C1         206.4424  47.5013  69.6945 C.3            1 RES1               0.0000
      2 C2         205.4049  46.5420  70.3126 C.ar           1 RES1               0.0000
      3 C3         207.7574  46.7295  69.6348 C.2            1 RES1               0.0000
      4 C4         205.8934  47.9014  68.3295 C.2            1 RES1               0.0000
      5 C5         206.6673  48.7920  70.5161 C.3            1 RES1               0.0000
      6 C6         204.9461  45.4389  69.5988 C.ar           1 RES1               0.0000
      7 C7         204.9003  46.7451  71.5943 C.ar           1 RES1               0.0000
      8 N8         208.1790  46.2931  68.4135 N.am           1 RES1               0.0000
      9 O9         208.3946  46.4735  70.6491 O.2            1 RES1               0.0000
     10 N10        206.5826  47.4966  67.2165 N.am           1 RES1               0.0000
     11 O11        204.8612  48.5493  68.2073 O.2            1 RES1               0.0000
     12 C12        207.5532  49.8143  69.8216 C.3            1 RES1               0.0000
     13 C13        204.0187  44.5688  70.1474 C.ar           1 RES1               0.0000
     14 C14        203.9727  45.8738  72.1410 C.ar           1 RES1               0.0000
     15 C15        207.6837  46.6846  67.1957 C.2            1 RES1               0.0000
     16 C16        203.5317  44.7853  71.4189 C.ar           1 RES1               0.0000
     17 O17        208.2159  46.3192  66.1514 O.2            1 RES1               0.0000
     18 H18        205.6935  49.2522  70.7243 H              1 RES1               0.0000
     19 H19        207.1238  48.5240  71.4769 H              1 RES1               0.0000
     20 H20        205.3161  45.2537  68.5959 H              1 RES1               0.0000
     21 H21        205.2321  47.5954  72.1804 H              1 RES1               0.0000
     22 H22        208.9322  45.6127  68.4049 H              1 RES1               0.0000
     23 H23        206.2435  47.8318  66.3204 H              1 RES1               0.0000
     24 H24        207.6784  50.7001  70.4408 H              1 RES1               0.0000
     25 H25        208.5386  49.3984  69.6219 H              1 RES1               0.0000
     26 H26        207.1168  50.1223  68.8737 H              1 RES1               0.0000
     27 H27        203.6738  43.7144  69.5745 H              1 RES1               0.0000
     28 H28        203.5917  46.0484  73.1418 H              1 RES1               0.0000
     29 H29        202.8055  44.1033  71.8486 H              1 RES1               0.0000
@<TRIPOS>BOND
    1    1    2 1     
    2    1    3 1     
    3    1    4 1     
    4    1    5 1     
    5    2    6 ar    
    6    2    7 ar    
    7    3    8 1     
    8    3    9 2     
    9    4   10 1     
   10    4   11 2     
   11    5   12 1     
   12    5   18 1     
   13    5   19 1     
   14    6   13 ar    
   15    6   20 1     
   16    7   14 ar    
   17    7   21 1     
   18    8   15 1     
   19    8   22 1     
   20   10   15 1     
   21   10   23 1     
   22   12   24 1     
   23   12   25 1     
   24   12   26 1     
   25   13   16 ar    
   26   13   27 1     
   27   14   16 ar    
   28   14   28 1     
   29   15   17 2     
   30   16   29 1     
@<TRIPOS>SUBSTRUCTURE
      1 RES1           1
@<TRIPOS>SET
DONOR_HYDROGENS      STATIC     ATOMS    <user>   **** ""
2 22 23
ATOM$RED        STATIC     ATOMS    COLORGROUP SYSTEM
2 22 23
@<TRIPOS>COMMENT
> <Gold.Version>
2022.3.0

> <Gold.Id.Protein>
unknown|4v3u_clean|pdb

> <Gold.Protein.RotatedTorsions>
[ 9569 9506 9505 9503 ] final  159.26 input   60.01 | X-H torsion
[ 7894 7872 7871 7868 ] final   28.40 input   60.03 | X-H torsion
[ 7976 7919 7918 7917 ] final -132.62 input   59.99 | X-H torsion

> <Gold.Protein.ActiveResidues>
 ASP403  THR404  ILE407  TYR408  ALA410  LYS411  TRP414  GLN425  TRP426  SER427 
 LYS428  LEU429  GLN430  VAL431  PHE432  ASP433  TYR453  SER462  ALA463  ILE464 

> <Gold.Protein.RotatedAtoms>
  204.1486   43.9794   61.9002 H   0  0  0  0  0  0  0  0  0  0  0  0  # atno 7894 bound_to 7872
  200.7178   47.0355   67.3651 H   0  0  0  0  0  0  0  0  0  0  0  0  # atno 7976 bound_to 7919
  200.9899   46.1082   66.0177 H   0  0  0  0  0  0  0  0  0  0  0  0  # atno 7977 bound_to 7919
  201.0374   45.4160   67.5222 H   0  0  0  0  0  0  0  0  0  0  0  0  # atno 7978 bound_to 7919
  207.8113   46.6530   73.3301 H   0  0  0  0  0  0  0  0  0  0  0  0  # atno 9569 bound_to 9506
  207.4509   45.1586   72.7954 LP  0  0  0  0  0  0  0  0  0  0  0  0  # atno 27216 bound_to 9506
  208.8221   45.8964   72.3031 LP  0  0  0  0  0  0  0  0  0  0  0  0  # atno 27217 bound_to 9506
  204.0040   43.5386   60.3407 LP  0  0  0  0  0  0  0  0  0  0  0  0  # atno 27226 bound_to 7872
  203.8739   45.1105   60.7635 LP  0  0  0  0  0  0  0  0  0  0  0  0  # atno 27227 bound_to 7872

> <Gold.Score>
     Fitness  S(hb_ext) S(vdw_ext)  S(hb_int)    S(int)      intcor
     23.59       0.09      17.13       0.00      -0.05      -0.76

> <Gold.Goldscore.Fitness>
23.5897

> <Gold.Goldscore.Internal.Vdw>
-0.3589

> <Gold.Goldscore.Internal.Torsion>
-0.4509

> <Gold.Goldscore.External.Vdw>
17.1304

> <Gold.Goldscore.Internal.HBond>
0.0000

> <Gold.Goldscore.External.HBond>
0.0876

> <Gold.Goldscore.Internal.Correction>
-0.7576

> <Gold.Goldscore.Hbonds>
donor molecule, donor type, donor heavy atom, donor atom, acceptor molecule, acceptor atom, score
      P1  H  7999  8053       L1    17  0.04

> <Gold.Goldscore.Internal.Vdw.Weighted>
-0.3589

> <Gold.Goldscore.Internal.Torsion.Weighted>
-0.4509

> <Gold.Goldscore.External.Vdw.Weighted>
23.5543

> <Gold.Goldscore.Internal.HBond.Weighted>
0.0000

> <Gold.Goldscore.External.HBond.Weighted>
0.0876

> <Gold.Goldscore.Internal.Correction.Weighted>
-0.7576

> <Gold.Rescore>
     Score     S(PLP)   S(hbond)     S(cho)   S(metal)  DE(clash)   DE(tors)     intcor
     26.17     -24.09       0.86       0.00       0.00       0.00       0.25       ----

> <Gold.PLP.Fitness>
26.1686

> <Gold.PLP.PLP>
-24.0860

> <Gold.PLP.part.hbond>
-2.2184

> <Gold.PLP.part.metal>
0.0000

> <Gold.PLP.part.buried>
-0.7326

> <Gold.PLP.part.nonpolar>
-23.3862

> <Gold.PLP.part.repulsive>
2.1483

> <Gold.PLP.ligand.clash>
0.0000

> <Gold.PLP.ligand.torsion>
0.2547

> <Gold.PLP.Chemscore.Hbond>
0.8640

> <Gold.PLP.Chemscore.CHOScore>
0.0000

> <Gold.PLP.Chemscore.Metal>
0.0000

> <Gold.Chemscore.Hbonds>
donor molecule, donor type, donor heavy atom, donor atom, acceptor molecule, acceptor atom, score
      P1  H  7999  8053       L1    17  0.78

> <Gold.PLP.Chemscore.Internal.Correction>
   9.000000E+99

