#       Name:                CT1002167954
#       Creating user name   hitesit
#       Creation time:       Sun Apr 16 22:54:44 2023


#       File generated by GOLD software.
#

@<TRIPOS>MOLECULE
CT1002167954|ligand_prepared|mol2|1|dock3
    29    30     1
SMALL
NO_CHARGES


@<TRIPOS>ATOM
      1 C1         206.8877  46.8684  69.3227 C.3            1 RES1               0.0000
      2 C2         206.1184  45.6287  69.8230 C.ar           1 RES1               0.0000
      3 C3         208.2217  46.3572  68.7865 C.2            1 RES1               0.0000
      4 C4         206.0027  47.5226  68.2676 C.2            1 RES1               0.0000
      5 C5         207.1703  47.9153  70.4253 C.3            1 RES1               0.0000
      6 C6         205.1317  45.7524  70.7965 C.ar           1 RES1               0.0000
      7 C7         206.3820  44.3577  69.3194 C.ar           1 RES1               0.0000
      8 N8         208.3903  46.3306  67.4334 N.am           1 RES1               0.0000
      9 O9         209.0974  45.9465  69.5380 O.2            1 RES1               0.0000
     10 N10        206.4523  47.5399  66.9733 N.am           1 RES1               0.0000
     11 O11        204.9125  48.0086  68.5426 O.2            1 RES1               0.0000
     12 C12        208.0986  49.0357  69.9834 C.3            1 RES1               0.0000
     13 C13        204.4316  44.6459  71.2482 C.ar           1 RES1               0.0000
     14 C14        205.6809  43.2525  69.7727 C.ar           1 RES1               0.0000
     15 C15        207.5920  46.9463  66.5032 C.2            1 RES1               0.0000
     16 C16        204.7054  43.3954  70.7364 C.ar           1 RES1               0.0000
     17 O17        207.9017  46.9582  65.3153 O.2            1 RES1               0.0000
     18 H18        206.2180  48.3529  70.7491 H              1 RES1               0.0000
     19 H19        207.6167  47.4070  71.2889 H              1 RES1               0.0000
     20 H20        204.9041  46.7281  71.2128 H              1 RES1               0.0000
     21 H21        207.1459  44.2212  68.5615 H              1 RES1               0.0000
     22 H22        209.1832  45.8043  67.0806 H              1 RES1               0.0000
     23 H23        205.8849  48.0418  66.2977 H              1 RES1               0.0000
     24 H24        208.2636  49.7422  70.7942 H              1 RES1               0.0000
     25 H25        209.0645  48.6386  69.6782 H              1 RES1               0.0000
     26 H26        207.6741  49.5789  69.1417 H              1 RES1               0.0000
     27 H27        203.6658  44.7636  72.0078 H              1 RES1               0.0000
     28 H28        205.9001  42.2701  69.3675 H              1 RES1               0.0000
     29 H29        204.1566  42.5289  71.0901 H              1 RES1               0.0000
@<TRIPOS>BOND
    1    1    2 1     
    2    1    3 1     
    3    1    4 1     
    4    1    5 1     
    5    2    6 ar    
    6    2    7 ar    
    7    3    8 1     
    8    3    9 2     
    9    4   10 1     
   10    4   11 2     
   11    5   12 1     
   12    5   18 1     
   13    5   19 1     
   14    6   13 ar    
   15    6   20 1     
   16    7   14 ar    
   17    7   21 1     
   18    8   15 1     
   19    8   22 1     
   20   10   15 1     
   21   10   23 1     
   22   12   24 1     
   23   12   25 1     
   24   12   26 1     
   25   13   16 ar    
   26   13   27 1     
   27   14   16 ar    
   28   14   28 1     
   29   15   17 2     
   30   16   29 1     
@<TRIPOS>SUBSTRUCTURE
      1 RES1           1
@<TRIPOS>SET
DONOR_HYDROGENS      STATIC     ATOMS    <user>   **** ""
2 22 23
ATOM$RED        STATIC     ATOMS    COLORGROUP SYSTEM
2 22 23
@<TRIPOS>COMMENT
> <Gold.Version>
2022.3.0

> <Gold.Id.Protein>
unknown|4v3u_clean|pdb

> <Gold.Protein.RotatedTorsions>
[ 9569 9506 9505 9503 ] final  146.61 input   60.01 | X-H torsion
[ 7894 7872 7871 7868 ] final   11.48 input   60.03 | X-H torsion
[ 7976 7919 7918 7917 ] final  -12.11 input   59.99 | X-H torsion

> <Gold.Protein.ActiveResidues>
 ASP403  THR404  ILE407  TYR408  ALA410  LYS411  TRP414  GLN425  TRP426  SER427 
 LYS428  LEU429  GLN430  VAL431  PHE432  ASP433  TYR453  SER462  ALA463  ILE464 

> <Gold.Protein.RotatedAtoms>
  204.1643   43.7271   61.7908 H   0  0  0  0  0  0  0  0  0  0  0  0  # atno 7894 bound_to 7872
  200.9921   46.1005   66.0178 H   0  0  0  0  0  0  0  0  0  0  0  0  # atno 7976 bound_to 7919
  201.0354   45.4214   67.5299 H   0  0  0  0  0  0  0  0  0  0  0  0  # atno 7977 bound_to 7919
  200.7174   47.0381   67.3575 H   0  0  0  0  0  0  0  0  0  0  0  0  # atno 7978 bound_to 7919
  207.6443   46.5421   73.3794 H   0  0  0  0  0  0  0  0  0  0  0  0  # atno 9569 bound_to 9506
  207.5931   45.0803   72.6656 LP  0  0  0  0  0  0  0  0  0  0  0  0  # atno 27216 bound_to 9506
  208.8481   46.0863   72.3834 LP  0  0  0  0  0  0  0  0  0  0  0  0  # atno 27217 bound_to 9506
  203.9582   43.7581   60.1772 LP  0  0  0  0  0  0  0  0  0  0  0  0  # atno 27226 bound_to 7872
  203.9038   45.1452   61.0371 LP  0  0  0  0  0  0  0  0  0  0  0  0  # atno 27227 bound_to 7872

> <Gold.Score>
     Fitness  S(hb_ext) S(vdw_ext)  S(hb_int)    S(int)      intcor
     31.29       0.14      23.38       0.00      -1.00      -0.79

> <Gold.Goldscore.Fitness>
31.2901

> <Gold.Goldscore.Internal.Vdw>
-1.3039

> <Gold.Goldscore.Internal.Torsion>
-0.4849

> <Gold.Goldscore.External.Vdw>
23.3782

> <Gold.Goldscore.Internal.HBond>
0.0000

> <Gold.Goldscore.External.HBond>
0.1445

> <Gold.Goldscore.Internal.Correction>
-0.7893

> <Gold.Goldscore.Hbonds>
donor molecule, donor type, donor heavy atom, donor atom, acceptor molecule, acceptor atom, score
      P1  H  7999  8053       L1    17  0.04
      L1  H     8    22       P1  8002  0.03

> <Gold.Goldscore.Internal.Vdw.Weighted>
-1.3039

> <Gold.Goldscore.Internal.Torsion.Weighted>
-0.4849

> <Gold.Goldscore.External.Vdw.Weighted>
32.1451

> <Gold.Goldscore.Internal.HBond.Weighted>
0.0000

> <Gold.Goldscore.External.HBond.Weighted>
0.1445

> <Gold.Goldscore.Internal.Correction.Weighted>
-0.7893

> <Gold.Rescore>
     Score     S(PLP)   S(hbond)     S(cho)   S(metal)  DE(clash)   DE(tors)     intcor
     29.51     -29.02       0.79       0.00       0.00       0.47       0.71       ----

> <Gold.PLP.Fitness>
29.5136

> <Gold.PLP.PLP>
-29.0214

> <Gold.PLP.part.hbond>
-2.7211

> <Gold.PLP.part.metal>
0.0000

> <Gold.PLP.part.buried>
1.0222

> <Gold.PLP.part.nonpolar>
-28.6441

> <Gold.PLP.part.repulsive>
1.3071

> <Gold.PLP.ligand.clash>
0.4669

> <Gold.PLP.ligand.torsion>
0.7099

> <Gold.PLP.Chemscore.Hbond>
0.7930

> <Gold.PLP.Chemscore.CHOScore>
0.0000

> <Gold.PLP.Chemscore.Metal>
0.0000

> <Gold.Chemscore.Hbonds>
donor molecule, donor type, donor heavy atom, donor atom, acceptor molecule, acceptor atom, score
      L1  H     8    22       P1  8002  0.65
      P1  H  6783  6846       L1    17  0.04

> <Gold.PLP.Chemscore.Internal.Correction>
   9.000000E+99

