@<TRIPOS>MOLECULE
A:1SB2001
    37    38     1     0     1
SMALL
NO_CHARGES
****
Generated from the CSD

@<TRIPOS>ATOM
     1 C1      -7.1950  -5.3830  20.1120   C.ar      1 1SB2001   0.0000
     2 N1      -8.8170  -8.2500  18.8130   N.am      1 1SB2001   0.0000
     3 O1      -8.6640  -8.0400  20.9920   O.2       1 1SB2001   0.0000
     4 C2      -8.5030  -5.9550  19.8250   C.3       1 1SB2001   0.0000
     5 N2      -8.8060  -9.6510  18.7500   N.2       1 1SB2001   0.0000
     6 O2      -5.5320  -2.8840  21.9780   O.3       1 1SB2001   0.0000
     7 C3      -8.6610  -7.4850  19.9010   C.2       1 1SB2001   0.0000
     8 O3      -8.7510 -15.7480  16.5370   O.3       1 1SB2001   0.0000
     9 C4      -8.9450 -10.1210  17.5620   C.2       1 1SB2001   0.0000
    10 C5      -8.9240 -11.6270  17.4700   C.ar      1 1SB2001   0.0000
    11 C6      -6.1030  -5.9260  19.4790   C.ar      1 1SB2001   0.0000
    12 C7      -4.8260  -5.4930  19.6660   C.ar      1 1SB2001   0.0000
    13 C8      -4.6430  -4.4860  20.5510   C.ar      1 1SB2001   0.0000
    14 C9      -5.7350  -3.9220  21.1520   C.ar      1 1SB2001   0.0000
    15 C10     -6.6450  -2.1740  22.6030   C.3       1 1SB2001   0.0000
    16 C11     -7.0480  -4.3260  20.9920   C.ar      1 1SB2001   0.0000
    17 C12     -8.9600 -12.5750  18.4750   C.ar      1 1SB2001   0.0000
    18 C13     -8.8770 -13.9570  18.1410   C.ar      1 1SB2001   0.0000
    19 C14     -8.8070 -14.4250  16.8590   C.ar      1 1SB2001   0.0000
    20 C15     -8.7890 -13.4640  15.8540   C.ar      1 1SB2001   0.0000
    21 C16     -8.8450 -12.0960  16.1640   C.ar      1 1SB2001   0.0000
    22 H1      -6.2687  -6.7508  18.7875   H         1 1SB2001   0.0000
    23 H2      -8.9592  -7.7608  17.9351   H         1 1SB2001   0.0000
    24 H3      -7.8845  -3.8576  21.5085   H         1 1SB2001   0.0000
    25 H4      -3.9898  -5.9369  19.1278   H         1 1SB2001   0.0000
    26 H5      -7.2203  -2.8675  23.2146   H         1 1SB2001   0.0000
    27 H6      -6.2578  -1.3722  23.2300   H         1 1SB2001   0.0000
    28 H7      -7.2867  -1.7530  21.8304   H         1 1SB2001   0.0000
    29 H8      -8.7307 -13.7769  14.8125   H         1 1SB2001   0.0000
    30 H9      -9.5630 -16.2064  16.8784   H         1 1SB2001   0.0000
    31 H10     -8.7730  -5.6524  18.8143   H         1 1SB2001   0.0000
    32 H11     -9.2073  -5.5221  20.5339   H         1 1SB2001   0.0000
    33 H12     -9.0684  -9.4817  16.6891   H         1 1SB2001   0.0000
    34 H13     -8.8258 -11.3738  15.3491   H         1 1SB2001   0.0000
    35 H14     -9.0512 -12.2672  19.5156   H         1 1SB2001   0.0000
    36 H15     -8.8689 -14.6821  18.9535   H         1 1SB2001   0.0000
    37 H16     -3.6403  -4.1293  20.7817   H         1 1SB2001   0.0000
@<TRIPOS>BOND
     1     1     4    1
     2     2     5    1
     3     2     7   am
     4     3     7    2
     5     4     7    1
     6     5     9    2
     7     9    10    1
     8     1    11   ar
     9    11    12   ar
    10    12    13   ar
    11     6    14    1
    12    13    14   ar
    13     6    15    1
    14     1    16   ar
    15    14    16   ar
    16    10    17   ar
    17    17    18   ar
    18     8    19    1
    19    18    19   ar
    20    19    20   ar
    21    10    21   ar
    22    20    21   ar
    23    11    22    1
    24     2    23    1
    25    16    24    1
    26    12    25    1
    27    15    26    1
    28    15    27    1
    29    15    28    1
    30    20    29    1
    31     8    30    1
    32     4    31    1
    33     4    32    1
    34     9    33    1
    35    21    34    1
    36    17    35    1
    37    18    36    1
    38    13    37    1
@<TRIPOS>SUBSTRUCTURE
     1 1SB2001     1 GROUP             0 A     1SB     0  
@<TRIPOS>SET
CCDC_LIGAND STATIC ATOMS
37 1 2 3 4 5 6 7 8 9 \
10 11 12 13 14 15 16 17 18 19 \
20 21 22 23 24 25 26 27 28 29 \
30 31 32 33 34 35 36 37 
