@<TRIPOS>MOLECULE
B:BUD3001
    16    15     1     0     1
SMALL
NO_CHARGES
****
Generated from the CSD

@<TRIPOS>ATOM
     1 C1     -10.6170   0.1940  15.2680   C.3       1 BUD3001   0.0000
     2 O1      -8.4540  -0.4900  15.9600   O.3       1 BUD3001   0.0000
     3 C2      -9.8460  -0.5620  16.3610   C.3       1 BUD3001   0.0000
     4 O2      -9.5500  -2.6770  17.4860   O.3       1 BUD3001   0.0000
     5 C3     -10.2570  -2.0380  16.3850   C.3       1 BUD3001   0.0000
     6 C4     -11.7540  -2.1000  16.7090   C.3       1 BUD3001   0.0000
     7 H1     -10.4511  -0.2894  14.3064   H         1 BUD3001   0.0000
     8 H2     -11.6808   0.1835  15.5009   H         1 BUD3001   0.0000
     9 H3     -10.2656   1.2237  15.2221   H         1 BUD3001   0.0000
    10 H4      -8.1738   0.4611  15.9061   H         1 BUD3001   0.0000
    11 H5      -9.9959  -0.0993  17.3353   H         1 BUD3001   0.0000
    12 H6      -9.7989  -2.2354  18.3399   H         1 BUD3001   0.0000
    13 H7     -10.0366  -2.5259  15.4367   H         1 BUD3001   0.0000
    14 H8     -12.3135  -1.5636  15.9440   H         1 BUD3001   0.0000
    15 H9     -12.0774  -3.1396  16.7333   H         1 BUD3001   0.0000
    16 H10    -11.9346  -1.6409  17.6798   H         1 BUD3001   0.0000
@<TRIPOS>BOND
     1     1     3    1
     2     2     3    1
     3     3     5    1
     4     4     5    1
     5     5     6    1
     6     1     7    1
     7     1     8    1
     8     1     9    1
     9     2    10    1
    10     3    11    1
    11     4    12    1
    12     5    13    1
    13     6    14    1
    14     6    15    1
    15     6    16    1
@<TRIPOS>SUBSTRUCTURE
     1 BUD3001     1 GROUP             0 B     BUD     0  
@<TRIPOS>SET
CCDC_LIGAND STATIC ATOMS
16 1 2 3 4 5 6 7 8 9 \
10 11 12 13 14 15 16 
