@<TRIPOS>MOLECULE
B:THR5
   294   296    20     0     1
SMALL
NO_CHARGES
****
Generated from the CSD

@<TRIPOS>ATOM
     1 N      -32.0130   8.0600   1.4130   N.3       1 THR5   0.0000
     2 CA     -32.3460   6.9210   2.2540   C.3       1 THR5   0.0000
     3 C      -31.3720   6.8760   3.4390   C.2       1 THR5   0.0000
     4 O      -30.2670   7.3910   3.3260   O.2       1 THR5   0.0000
     5 CB     -32.2380   5.5600   1.5580   C.3       1 THR5   0.0000
     6 CG2    -33.0540   5.4900   0.2820   C.3       1 THR5   0.0000
     7 OG1    -30.8410   5.3830   1.2120   O.3       1 THR5   0.0000
     8 N      -31.7980   6.2520   4.5210   N.am      2 THR6   0.0000
     9 CA     -30.9360   6.1520   5.6970   C.3       2 THR6   0.0000
    10 C      -29.6900   5.3590   5.3330   C.2       2 THR6   0.0000
    11 O      -28.5820   5.6910   5.7210   O.2       2 THR6   0.0000
    12 CB     -31.6480   5.4870   6.8880   C.3       2 THR6   0.0000
    13 CG2    -30.8070   5.6220   8.1470   C.3       2 THR6   0.0000
    14 OG1    -32.8670   6.1780   7.1290   O.3       2 THR6   0.0000
    15 N      -29.8710   4.3060   4.5300   N.am      3 TYR7   0.0000
    16 CA     -28.7110   3.5110   4.1190   C.3       3 TYR7   0.0000
    17 C      -27.7060   4.3670   3.3770   C.2       3 TYR7   0.0000
    18 O      -26.4840   4.3280   3.5760   O.2       3 TYR7   0.0000
    19 CB     -29.1870   2.3230   3.2680   C.3       3 TYR7   0.0000
    20 CG     -28.0670   1.6520   2.5020   C.ar      3 TYR7   0.0000
    21 CD1    -27.9120   1.8970   1.1490   C.ar      3 TYR7   0.0000
    22 CD2    -27.1840   0.7850   3.1180   C.ar      3 TYR7   0.0000
    23 CE1    -26.9000   1.3000   0.4210   C.ar      3 TYR7   0.0000
    24 CE2    -26.1550   0.1650   2.4100   C.ar      3 TYR7   0.0000
    25 CZ     -26.0290   0.4360   1.0710   C.ar      3 TYR7   0.0000
    26 OH     -25.0380  -0.1420   0.3040   O.3       3 TYR7   0.0000
    27 N      -28.2170   5.1970   2.4530   N.am      4 ALA8   0.0000
    28 CA     -27.2990   6.0450   1.7030   C.3       4 ALA8   0.0000
    29 C      -26.5800   7.0510   2.5910   C.2       4 ALA8   0.0000
    30 O      -25.4090   7.3490   2.3900   O.2       4 ALA8   0.0000
    31 CB     -28.0890   6.7510   0.5980   C.3       4 ALA8   0.0000
    32 N      -27.3120   7.5470   3.5900   N.am      5 ASP9   0.0000
    33 CA     -26.7120   8.4760   4.5310   C.3       5 ASP9   0.0000
    34 C      -25.6090   7.8000   5.3450   C.2       5 ASP9   0.0000
    35 O      -24.5560   8.3980   5.5880   O.2       5 ASP9   0.0000
    36 CB     -27.7690   9.0690   5.4600   C.3       5 ASP9   0.0000
    37 CG     -28.6910  10.0300   4.7340   C.ar      5 ASP9   0.0000
    38 OD1    -28.3100  10.5790   3.6710   O.co2     5 ASP9   0.0000
    39 OD2    -29.8090  10.2160   5.2670   O.co2     5 ASP9   0.0000
    40 N      -25.8320   6.5520   5.7320   N.am      6 PHE10   0.0000
    41 CA     -24.8040   5.8460   6.4780   C.3       6 PHE10   0.0000
    42 C      -23.5990   5.5760   5.6050   C.2       6 PHE10   0.0000
    43 O      -22.4480   5.7790   6.0100   O.2       6 PHE10   0.0000
    44 CB     -25.3710   4.5440   7.0290   C.3       6 PHE10   0.0000
    45 CG     -24.3210   3.6820   7.7260   C.ar      6 PHE10   0.0000
    46 CD1    -23.7460   4.1560   8.8910   C.ar      6 PHE10   0.0000
    47 CD2    -23.9380   2.4630   7.1960   C.ar      6 PHE10   0.0000
    48 CE1    -22.7610   3.4410   9.5570   C.ar      6 PHE10   0.0000
    49 CE2    -22.9760   1.7210   7.8720   C.ar      6 PHE10   0.0000
    50 CZ     -22.4280   2.2130   9.0400   C.ar      6 PHE10   0.0000
    51 N      -23.8130   5.1180   4.3700   N.am      7 ILE11   0.0000
    52 CA     -22.6770   4.7990   3.4930   C.3       7 ILE11   0.0000
    53 C      -21.8370   6.0010   3.1100   C.2       7 ILE11   0.0000
    54 O      -20.6330   5.8420   2.8320   O.2       7 ILE11   0.0000
    55 CB     -23.2260   4.0310   2.2850   C.3       7 ILE11   0.0000
    56 CG1    -23.7660   2.6470   2.7060   C.3       7 ILE11   0.0000
    57 CG2    -22.1990   3.9140   1.1780   C.3       7 ILE11   0.0000
    58 CD1    -22.7620   1.6950   3.3200   C.3       7 ILE11   0.0000
    59 N      -22.4100   7.2040   3.0940   N.am      8 ALA12   0.0000
    60 CA     -21.6660   8.4490   2.8510   C.3       8 ALA12   0.0000
    61 C      -21.0280   9.0240   4.1150   C.2       8 ALA12   0.0000
    62 O      -20.2570   9.9880   4.0180   O.2       8 ALA12   0.0000
    63 CB     -22.6000   9.4940   2.2230   C.3       8 ALA12   0.0000
    64 N      -21.3260   8.4430   5.2730   N.am      9 SER13   0.0000
    65 CA     -20.8120   8.8950   6.5420   C.3       9 SER13   0.0000
    66 C      -19.3800   8.4510   6.7630   C.2       9 SER13   0.0000
    67 O      -18.8110   7.6330   6.0530   O.2       9 SER13   0.0000
    68 CB     -21.7140   8.4080   7.6990   C.3       9 SER13   0.0000
    69 OG     -21.3360   7.0880   8.1010   O.3       9 SER13   0.0000
    70 N      -18.7670   9.0450   7.7990   N.am     10 GLY14   0.0000
    71 CA     -17.3670   8.6940   8.0570   C.3      10 GLY14   0.0000
    72 C      -17.2370   7.5440   9.0360   C.2      10 GLY14   0.0000
    73 O      -16.1500   7.2270   9.5070   O.2      10 GLY14   0.0000
    74 N      -18.3450   6.8720   9.3760   N.am     11 ARG15   0.0000
    75 CA     -18.2000   5.8410  10.4170   C.3      11 ARG15   0.0000
    76 C      -18.6810   4.4920   9.9410   C.2      11 ARG15   0.0000
    77 O      -19.3290   3.6920  10.5980   O.2      11 ARG15   0.0000
    78 CB     -18.9440   6.2770  11.6960   C.3      11 ARG15   0.0000
    79 CG     -18.1760   7.4650  12.3100   C.3      11 ARG15   0.0000
    80 CD     -18.7890   7.8610  13.6250   C.3      11 ARG15   0.0000
    81 NE     -18.5700   6.8710  14.6660   N.2      11 ARG15   0.0000
    82 CZ     -17.5270   6.7570  15.4650   C.ar     11 ARG15   0.0000
    83 NH1    -17.5520   5.7730  16.3580   N.2      11 ARG15   0.0000
    84 NH2    -16.4570   7.5470  15.4200   N.2      11 ARG15   0.0000
    85 N      -18.3110   4.1650   8.6840   N.am     12 THR16   0.0000
    86 CA     -18.6500   2.8710   8.1210   C.3      12 THR16   0.0000
    87 C      -17.4770   1.8960   8.2410   C.2      12 THR16   0.0000
    88 O      -17.6720   0.7260   7.9250   O.2      12 THR16   0.0000
    89 CB     -19.0510   2.9340   6.6250   C.3      12 THR16   0.0000
    90 CG2    -20.1190   4.0160   6.4790   C.3      12 THR16   0.0000
    91 OG1    -17.9420   3.2930   5.8010   O.3      12 THR16   0.0000
    92 N      -16.3080   2.3980   8.6370   N.am     13 GLY17   0.0000
    93 CA     -15.1720   1.5230   8.9070   C.3      13 GLY17   0.0000
    94 C      -15.1370   0.9990  10.3250   C.2      13 GLY17   0.0000
    95 O      -16.0850   1.1340  11.0930   O.2      13 GLY17   0.0000
    96 N      -14.0240   0.3370  10.6950   N.am     14 ARG18   0.0000
    97 CA     -13.9590  -0.1920  12.0610   C.3      14 ARG18   0.0000
    98 C      -13.9660   0.9650  13.0310   C.2      14 ARG18   0.0000
    99 O      -13.2620   1.9570  12.7670   O.2      14 ARG18   0.0000
   100 CB     -12.7080  -1.0540  12.2290   C.3      14 ARG18   0.0000
   101 CG     -12.8040  -2.3600  11.4510   C.3      14 ARG18   0.0000
   102 CD     -11.6060  -3.2930  11.7400   C.3      14 ARG18   0.0000
   103 NE     -11.9590  -4.5380  11.0680   N.2      14 ARG18   0.0000
   104 CZ     -11.7210  -4.8260   9.8020   C.ar     14 ARG18   0.0000
   105 NH1    -11.0770  -3.9750   9.0010   N.2      14 ARG18   0.0000
   106 NH2    -12.1160  -5.9810   9.2920   N.2      14 ARG18   0.0000
   107 N      -14.7410   0.8190  14.0780   N.am     15 ARG19   0.0000
   108 CA     -14.9450   1.8150  15.1070   C.3      15 ARG19   0.0000
   109 C      -14.0690   1.5900  16.3290   C.2      15 ARG19   0.0000
   110 O      -14.0510   0.4970  16.8990   O.2      15 ARG19   0.0000
   111 CB     -16.4200   1.8000  15.5310   C.3      15 ARG19   0.0000
   112 CG     -17.3000   2.2810  14.3840   C.3      15 ARG19   0.0000
   113 CD     -18.7090   1.7970  14.3790   C.3      15 ARG19   0.0000
   114 NE     -18.8880   0.3660  14.3220   N.2      15 ARG19   0.0000
   115 CZ     -20.0330  -0.2540  14.1660   C.ar     15 ARG19   0.0000
   116 NH1    -21.1530   0.4470  14.0160   N.2      15 ARG19   0.0000
   117 NH2    -20.0970  -1.5680  14.1300   N.2      15 ARG19   0.0000
   118 N      -13.3630   2.6530  16.6970   N.am     16 ASN20   0.0000
   119 CA     -12.4570   2.5420  17.8340   C.3      16 ASN20   0.0000
   120 C      -13.2630   2.5670  19.1260   C.2      16 ASN20   0.0000
   121 O      -14.3160   3.1820  19.1800   O.2      16 ASN20   0.0000
   122 CB     -11.4480   3.6890  17.8650   C.3      16 ASN20   0.0000
   123 CG     -10.4680   3.6040  16.7070   C.2      16 ASN20   0.0000
   124 ND2    -10.5850   4.5150  15.7490   N.am     16 ASN20   0.0000
   125 OD1     -9.6340   2.7000  16.7030   O.2      16 ASN20   0.0000
   126 N      -12.6750   1.9280  20.1190   N.am     17 ALA21   0.0000
   127 CA     -13.1860   2.0610  21.4760   C.3      17 ALA21   0.0000
   128 C      -12.8840   3.4540  22.0250   C.2      17 ALA21   0.0000
   129 O      -11.9080   4.0830  21.6230   O.2      17 ALA21   0.0000
   130 CB     -12.5200   1.0660  22.4080   C.3      17 ALA21   0.0000
   131 N      -13.7610   3.8610  22.9430   N.am     18 ILE22   0.0000
   132 CA     -13.5090   5.0200  23.7600   C.3      18 ILE22   0.0000
   133 C      -13.0060   4.4770  25.0890   C.2      18 ILE22   0.0000
   134 O      -13.6270   3.6020  25.6810   O.2      18 ILE22   0.0000
   135 CB     -14.7700   5.8790  23.9410   C.3      18 ILE22   0.0000
   136 CG1    -15.5610   5.5880  25.2170   C.3      18 ILE22   0.0000
   137 CG2    -15.6660   5.7500  22.7160   C.3      18 ILE22   0.0000
   138 CD1    -16.8260   6.4090  25.3500   C.3      18 ILE22   0.0000
   139 N      -11.8720   4.9940  25.5410   N.am     19 HIS23   0.0000
   140 CA     -11.4190   4.4980  26.8660   C.3      19 HIS23   0.0000
   141 C      -12.1340   5.2610  27.9670   C.2      19 HIS23   0.0000
   142 O      -12.7360   4.6310  28.8480   O.2      19 HIS23   0.0000
   143 CB      -9.8850   4.5380  26.8530   C.3      19 HIS23   0.0000
   144 CG      -9.4180   3.7150  25.6720   C.2      19 HIS23   0.0000
   145 CD2     -9.1280   4.0400  24.3920   C.2      19 HIS23   0.0000
   146 ND1     -9.2420   2.3510  25.7560   N.pl3    19 HIS23   0.0000
   147 CE1     -8.8450   1.8780  24.5820   C.2      19 HIS23   0.0000
   148 NE2     -8.7630   2.8920  23.7310   N.2      19 HIS23   0.0000
   149 N      -12.1380   6.5870  27.9260   N.am     20 ASP24   0.0000
   150 CA     -13.0090   7.4200  28.7480   C.3      20 ASP24   0.0000
   151 C      -14.2520   7.8200  27.9560   C.2      20 ASP24   0.0000
   152 O      -14.5440   8.9790  27.6790   O.2      20 ASP24   0.0000
   153 CB     -12.2810   8.6530  29.2650   C.3      20 ASP24   0.0000
   154 H1     -25.4681  -0.5178   2.9079   H         3 TYR7   0.0000
   155 H2     -29.9272   2.6826   2.5548   H         3 TYR7   0.0000
   156 H3     -29.6453   1.5869   3.9268   H         3 TYR7   0.0000
   157 H4     -24.4672   0.5688  -0.0897   H         3 TYR7   0.0000
   158 H5     -24.1786   2.1679   1.8194   H         7 ILE11   0.0000
   159 H6     -24.5595   2.8077   3.4343   H         7 ILE11   0.0000
   160 H7     -27.2947   0.5812   4.1820   H         3 TYR7   0.0000
   161 H8     -26.7879   1.5036  -0.6429   H         3 TYR7   0.0000
   162 H9     -14.6247   3.3430  23.0688   H        18 ILE22   0.0000
   163 H10    -12.7274   5.6218  23.2987   H        18 ILE22   0.0000
   164 H11    -18.9761   5.4511  12.4050   H        11 ARG15   0.0000
   165 H12    -19.9595   6.5817  11.4475   H        11 ARG15   0.0000
   166 H13    -18.2168   8.3111  11.6256   H        11 ARG15   0.0000
   167 H14    -17.1380   7.1773  12.4700   H        11 ARG15   0.0000
   168 H15    -19.8615   7.9884  13.4853   H        11 ARG15   0.0000
   169 H16    -18.3498   8.8051  13.9440   H        11 ARG15   0.0000
   170 H17    -26.7106   6.0948   5.5099   H         6 PHE10   0.0000
   171 H18    -21.3230   3.3846   1.5500   H         7 ILE11   0.0000
   172 H19    -22.6277   3.3637   0.3418   H         7 ILE11   0.0000
   173 H20    -21.9078   4.9095   0.8463   H         7 ILE11   0.0000
   174 H21    -24.4929   6.4699   7.3146   H         6 PHE10   0.0000
   175 H22    -24.0656   4.6017   1.8909   H         7 ILE11   0.0000
   176 H23    -19.2401   7.0641   8.9376   H        11 ARG15   0.0000
   177 H24    -33.3593   7.0452   2.6332   H         1 THR5   0.0000
   178 H25    -31.0621   7.9621   1.0718   H         1 THR5   0.0000
   179 H26    -32.6527   8.0978   0.6258   H         1 THR5   0.0000
   180 H27    -20.3912   7.0928   8.4064   H         9 SER13   0.0000
   181 H28    -23.4099   7.2640   3.2577   H         8 ALA12   0.0000
   182 H29    -14.8383  -0.8085  12.2420   H        14 ARG18   0.0000
   183 H30    -12.5788  -1.2833  13.2857   H        14 ARG18   0.0000
   184 H31    -11.8452  -0.4944  11.8708   H        14 ARG18   0.0000
   185 H32    -12.8255  -2.1344  10.3858   H        14 ARG18   0.0000
   186 H33    -13.7237  -2.8706  11.7325   H        14 ARG18   0.0000
   187 H34    -11.4879  -3.4511  12.8110   H        14 ARG18   0.0000
   188 H35    -10.6856  -2.8795  11.3305   H        14 ARG18   0.0000
   189 H36    -10.9068  -4.2210   8.0311   H        14 ARG18   0.0000
   190 H37    -11.9296  -6.1958   8.3177   H        14 ARG18   0.0000
   191 H38    -15.2366  -0.0615  14.1742   H        15 ARG19   0.0000
   192 H39    -14.7142   2.7947  14.6912   H        15 ARG19   0.0000
   193 H40    -16.5549   2.4576  16.3885   H        15 ARG19   0.0000
   194 H41    -16.7061   0.7851  15.8032   H        15 ARG19   0.0000
   195 H42    -16.8360   1.9582  13.4532   H        15 ARG19   0.0000
   196 H43    -17.3241   3.3692  14.4193   H        15 ARG19   0.0000
   197 H44    -19.2064   2.2294  13.5121   H        15 ARG19   0.0000
   198 H45    -19.1876   2.1563  15.2888   H        15 ARG19   0.0000
   199 H46    -22.0394  -0.0324  13.8952   H        15 ARG19   0.0000
   200 H47    -20.9929  -2.0293  14.0084   H        15 ARG19   0.0000
   201 H48    -13.4528   3.5300  16.1940   H        16 ASN20   0.0000
   202 H49    -11.9192   1.5973  17.7689   H        16 ASN20   0.0000
   203 H50    -10.8933   3.6464  18.8012   H        16 ASN20   0.0000
   204 H51    -11.9855   4.6341  17.8043   H        16 ASN20   0.0000
   205 H52     -9.9535   4.4999  14.9545   H        16 ASN20   0.0000
   206 H53    -11.3060   5.2268  15.8108   H        16 ASN20   0.0000
   207 H54    -11.8657   1.3431  19.9370   H        17 ALA21   0.0000
   208 H55    -14.2624   1.8955  21.4769   H        17 ALA21   0.0000
   209 H56    -11.4456   1.2434  22.4206   H        17 ALA21   0.0000
   210 H57    -12.9197   1.1870  23.4137   H        17 ALA21   0.0000
   211 H58    -12.7167   0.0535  22.0586   H        17 ALA21   0.0000
   212 H59    -17.1415   5.7539  10.6578   H        11 ARG15   0.0000
   213 H60    -19.4900   2.4645   8.6823   H        12 THR16   0.0000
   214 H61    -19.4521   1.9724   6.3081   H        12 THR16   0.0000
   215 H62    -19.7132   4.9729   6.8040   H        12 THR16   0.0000
   216 H63    -20.4240   4.0866   5.4360   H        12 THR16   0.0000
   217 H64    -20.9813   3.7601   7.0929   H        12 THR16   0.0000
   218 H65    -17.2205   2.6187   5.9049   H        12 THR16   0.0000
   219 H66    -16.2065   3.4013   8.7522   H        13 GLY17   0.0000
   220 H67    -14.2555   2.0817   8.7234   H        13 GLY17   0.0000
   221 H68    -15.2219   0.6739   8.2270   H        13 GLY17   0.0000
   222 H69    -13.2531   0.2081  10.0475   H        14 ARG18   0.0000
   223 H70    -22.7511   8.3993   7.3669   H         9 SER13   0.0000
   224 H71    -21.6096   9.0851   8.5455   H         9 SER13   0.0000
   225 H72    -14.4462   6.9174  23.9939   H        18 ILE22   0.0000
   226 H73    -14.9222   5.7997  26.0732   H        18 ILE22   0.0000
   227 H74    -15.8337   4.5337  25.2194   H        18 ILE22   0.0000
   228 H75    -15.9566   4.7085  22.5869   H        18 ILE22   0.0000
   229 H76    -16.5569   6.3613  22.8519   H        18 ILE22   0.0000
   230 H77    -15.1250   6.0880  21.8334   H        18 ILE22   0.0000
   231 H78    -17.4835   6.2019  24.5070   H        18 ILE22   0.0000
   232 H79    -17.3324   6.1478  26.2780   H        18 ILE22   0.0000
   233 H80    -16.5721   7.4679  25.3607   H        18 ILE22   0.0000
   234 H81    -11.3465   5.6850  25.0150   H        19 HIS23   0.0000
   235 H82    -11.7183   3.4539  26.9442   H        19 HIS23   0.0000
   236 H83     -9.4943   4.1161  27.7778   H        19 HIS23   0.0000
   237 H84     -9.5408   5.5659  26.7491   H        19 HIS23   0.0000
   238 H85     -9.1755   5.0385  23.9599   H        19 HIS23   0.0000
   239 H86     -9.3932   1.7926  26.5900   H        19 HIS23   0.0000
   240 H87     -8.6243   0.8359  24.3557   H        19 HIS23   0.0000
   241 H88    -11.4988   7.0481  27.2864   H        20 ASP24   0.0000
   242 H89    -13.3293   6.8312  29.6063   H        20 ASP24   0.0000
   243 H90    -14.9192   7.0290  27.6168   H        20 ASP24   0.0000
   244 H91    -11.9315   9.2481  28.4226   H        20 ASP24   0.0000
   245 H92    -12.9613   9.2482  29.8724   H        20 ASP24   0.0000
   246 H93    -11.4295   8.3448  29.8698   H        20 ASP24   0.0000
   247 H94    -25.7955   3.9740   6.2039   H         6 PHE10   0.0000
   248 H95    -26.1549   4.7832   7.7461   H         6 PHE10   0.0000
   249 H96    -22.3436   2.1404   4.2213   H         7 ILE11   0.0000
   250 H97    -23.2575   0.7591   3.5740   H         7 ILE11   0.0000
   251 H98    -21.9627   1.5006   2.6064   H         7 ILE11   0.0000
   252 H99    -21.9471   7.6402   5.2633   H         9 SER13   0.0000
   253 H100   -31.8437   4.4373   6.6741   H         2 THR6   0.0000
   254 H101   -33.4412   6.1281   6.3204   H         2 THR6   0.0000
   255 H102   -26.2638   9.2906   3.9639   H         5 ASP9   0.0000
   256 H103   -28.6016   2.5742   0.6473   H         3 TYR7   0.0000
   257 H104   -21.7015   1.6018   9.5735   H         6 PHE10   0.0000
   258 H105   -22.6560   0.7559   7.4820   H         6 PHE10   0.0000
   259 H106   -16.7719   5.6455  16.9947   H        11 ARG15   0.0000
   260 H107   -15.6899   7.3998  16.0681   H        11 ARG15   0.0000
   261 H108   -17.7890   4.8329   8.1257   H        12 THR16   0.0000
   262 H109   -30.6337   7.1560   5.9911   H         2 THR6   0.0000
   263 H110   -27.2683   9.6037   6.2658   H         5 ASP9   0.0000
   264 H111   -28.3646   8.2584   5.8773   H         5 ASP9   0.0000
   265 H112   -24.7626   4.9895   4.0352   H         7 ILE11   0.0000
   266 H113   -20.8709   8.2343   2.1385   H         8 ALA12   0.0000
   267 H114   -32.7259   5.8408   4.5365   H         2 THR6   0.0000
   268 H115   -30.2903   5.4035   2.0380   H         1 THR5   0.0000
   269 H116   -16.8572   9.5641   8.4681   H        10 GLY14   0.0000
   270 H117   -16.8977   8.4090   7.1166   H        10 GLY14   0.0000
   271 H118   -19.2563   9.7147   8.3841   H        10 GLY14   0.0000
   272 H119   -20.8282   9.9839   6.5408   H         9 SER13   0.0000
   273 H120   -30.6524   6.6769   8.3689   H         2 THR6   0.0000
   274 H121   -31.3226   5.1475   8.9806   H         2 THR6   0.0000
   275 H122   -29.8434   5.1384   7.9935   H         2 THR6   0.0000
   276 H123   -28.2309   3.1191   5.0144   H         3 TYR7   0.0000
   277 H124   -22.0297   4.1159   4.0411   H         7 ILE11   0.0000
   278 H125   -28.8759   7.3569   1.0448   H         4 ALA8   0.0000
   279 H126   -27.4194   7.3908   0.0251   H         4 ALA8   0.0000
   280 H127   -28.5337   6.0076  -0.0619   H         4 ALA8   0.0000
   281 H128   -24.0739   5.1126   9.2950   H         6 PHE10   0.0000
   282 H129   -24.3793   2.0935   6.2716   H         6 PHE10   0.0000
   283 H130   -28.2848   7.2760   3.6919   H         5 ASP9   0.0000
   284 H131   -22.2746   3.8351  10.4481   H         6 PHE10   0.0000
   285 H132   -32.7040   6.2501  -0.4149   H         1 THR5   0.0000
   286 H133   -32.9402   4.5049  -0.1680   H         1 THR5   0.0000
   287 H134   -34.1039   5.6647   0.5125   H         1 THR5   0.0000
   288 H135   -32.5517   4.7711   2.2400   H         1 THR5   0.0000
   289 H136   -23.4285   9.6943   2.9008   H         8 ALA12   0.0000
   290 H137   -22.0466  10.4147   2.0442   H         8 ALA12   0.0000
   291 H138   -22.9872   9.1140   1.2788   H         8 ALA12   0.0000
   292 H139   -30.8017   4.0598   4.2085   H         3 TYR7   0.0000
   293 H140   -26.5510   5.4075   1.2340   H         4 ALA8   0.0000
   294 H141   -29.2167   5.2328   2.2814   H         4 ALA8   0.0000
@<TRIPOS>BOND
     1     1     2    1
     2     2     3    1
     3     3     4    2
     4     2     5    1
     5     5     6    1
     6     5     7    1
     7     3     8   am
     8     8     9    1
     9     9    10    1
    10    10    11    2
    11     9    12    1
    12    12    13    1
    13    12    14    1
    14    10    15   am
    15    15    16    1
    16    16    17    1
    17    17    18    2
    18    16    19    1
    19    19    20    1
    20    20    21   ar
    21    20    22   ar
    22    21    23   ar
    23    22    24   ar
    24    23    25   ar
    25    24    25   ar
    26    25    26    1
    27    17    27   am
    28    27    28    1
    29    28    29    1
    30    29    30    2
    31    28    31    1
    32    29    32   am
    33    32    33    1
    34    33    34    1
    35    34    35    2
    36    33    36    1
    37    36    37    1
    38    37    38   ar
    39    37    39   ar
    40    34    40   am
    41    40    41    1
    42    41    42    1
    43    42    43    2
    44    41    44    1
    45    44    45    1
    46    45    46   ar
    47    45    47   ar
    48    46    48   ar
    49    47    49   ar
    50    48    50   ar
    51    49    50   ar
    52    42    51   am
    53    51    52    1
    54    52    53    1
    55    53    54    2
    56    52    55    1
    57    55    56    1
    58    55    57    1
    59    56    58    1
    60    53    59   am
    61    59    60    1
    62    60    61    1
    63    61    62    2
    64    60    63    1
    65    61    64   am
    66    64    65    1
    67    65    66    1
    68    66    67    2
    69    65    68    1
    70    68    69    1
    71    66    70   am
    72    70    71    1
    73    71    72    1
    74    72    73    2
    75    72    74   am
    76    74    75    1
    77    75    76    1
    78    76    77    2
    79    75    78    1
    80    78    79    1
    81    79    80    1
    82    80    81    1
    83    81    82   ar
    84    82    83   ar
    85    82    84   ar
    86    76    85   am
    87    85    86    1
    88    86    87    1
    89    87    88    2
    90    86    89    1
    91    89    90    1
    92    89    91    1
    93    87    92   am
    94    92    93    1
    95    93    94    1
    96    94    95    2
    97    94    96   am
    98    96    97    1
    99    97    98    1
   100    98    99    2
   101    97   100    1
   102   100   101    1
   103   101   102    1
   104   102   103    1
   105   103   104   ar
   106   104   105   ar
   107   104   106   ar
   108    98   107   am
   109   107   108    1
   110   108   109    1
   111   109   110    2
   112   108   111    1
   113   111   112    1
   114   112   113    1
   115   113   114    1
   116   114   115   ar
   117   115   116   ar
   118   115   117   ar
   119   109   118   am
   120   118   119    1
   121   119   120    1
   122   120   121    2
   123   119   122    1
   124   122   123    1
   125   123   124   am
   126   123   125    2
   127   120   126   am
   128   126   127    1
   129   127   128    1
   130   128   129    2
   131   127   130    1
   132   128   131   am
   133   131   132    1
   134   132   133    1
   135   133   134    2
   136   132   135    1
   137   135   136    1
   138   135   137    1
   139   136   138    1
   140   133   139   am
   141   139   140    1
   142   140   141    1
   143   141   142    2
   144   140   143    1
   145   143   144    1
   146   144   145    2
   147   144   146    1
   148   146   147    1
   149   145   148    1
   150   147   148    2
   151   141   149   am
   152   149   150    1
   153   150   151    1
   154   151   152    2
   155   150   153    1
   156    24   154    1
   157    19   155    1
   158    19   156    1
   159    26   157    1
   160    56   158    1
   161    56   159    1
   162    22   160    1
   163    23   161    1
   164   131   162    1
   165   132   163    1
   166    78   164    1
   167    78   165    1
   168    79   166    1
   169    79   167    1
   170    80   168    1
   171    80   169    1
   172    40   170    1
   173    57   171    1
   174    57   172    1
   175    57   173    1
   176    41   174    1
   177    55   175    1
   178    74   176    1
   179     2   177    1
   180     1   178    1
   181     1   179    1
   182    69   180    1
   183    59   181    1
   184    97   182    1
   185   100   183    1
   186   100   184    1
   187   101   185    1
   188   101   186    1
   189   102   187    1
   190   102   188    1
   191   105   189    1
   192   106   190    1
   193   107   191    1
   194   108   192    1
   195   111   193    1
   196   111   194    1
   197   112   195    1
   198   112   196    1
   199   113   197    1
   200   113   198    1
   201   116   199    1
   202   117   200    1
   203   118   201    1
   204   119   202    1
   205   122   203    1
   206   122   204    1
   207   124   205    1
   208   124   206    1
   209   126   207    1
   210   127   208    1
   211   130   209    1
   212   130   210    1
   213   130   211    1
   214    75   212    1
   215    86   213    1
   216    89   214    1
   217    90   215    1
   218    90   216    1
   219    90   217    1
   220    91   218    1
   221    92   219    1
   222    93   220    1
   223    93   221    1
   224    96   222    1
   225    68   223    1
   226    68   224    1
   227   135   225    1
   228   136   226    1
   229   136   227    1
   230   137   228    1
   231   137   229    1
   232   137   230    1
   233   138   231    1
   234   138   232    1
   235   138   233    1
   236   139   234    1
   237   140   235    1
   238   143   236    1
   239   143   237    1
   240   145   238    1
   241   146   239    1
   242   147   240    1
   243   149   241    1
   244   150   242    1
   245   151   243    1
   246   153   244    1
   247   153   245    1
   248   153   246    1
   249    44   247    1
   250    44   248    1
   251    58   249    1
   252    58   250    1
   253    58   251    1
   254    64   252    1
   255    12   253    1
   256    14   254    1
   257    33   255    1
   258    21   256    1
   259    50   257    1
   260    49   258    1
   261    83   259    1
   262    84   260    1
   263    85   261    1
   264     9   262    1
   265    36   263    1
   266    36   264    1
   267    51   265    1
   268    60   266    1
   269     8   267    1
   270     7   268    1
   271    71   269    1
   272    71   270    1
   273    70   271    1
   274    65   272    1
   275    13   273    1
   276    13   274    1
   277    13   275    1
   278    16   276    1
   279    52   277    1
   280    31   278    1
   281    31   279    1
   282    31   280    1
   283    46   281    1
   284    47   282    1
   285    32   283    1
   286    48   284    1
   287     6   285    1
   288     6   286    1
   289     6   287    1
   290     5   288    1
   291    63   289    1
   292    63   290    1
   293    63   291    1
   294    15   292    1
   295    28   293    1
   296    27   294    1
@<TRIPOS>SUBSTRUCTURE
     1 THR5        1 GROUP             0 B     THR     0  
     2 THR6        8 GROUP             0 B     THR     0  
     3 TYR7       15 GROUP             0 B     TYR     0  
     4 ALA8       27 GROUP             0 B     ALA     0  
     5 ASP9       32 GROUP             0 B     ASP     0  
     6 PHE10      40 GROUP             0 B     PHE     0  
     7 ILE11      51 GROUP             0 B     ILE     0  
     8 ALA12      59 GROUP             0 B     ALA     0  
     9 SER13      64 GROUP             0 B     SER     0  
    10 GLY14      70 GROUP             0 B     GLY     0  
    11 ARG15      74 GROUP             0 B     ARG     0  
    12 THR16      85 GROUP             0 B     THR     0  
    13 GLY17      92 GROUP             0 B     GLY     0  
    14 ARG18      96 GROUP             0 B     ARG     0  
    15 ARG19     107 GROUP             0 B     ARG     0  
    16 ASN20     118 GROUP             0 B     ASN     0  
    17 ALA21     126 GROUP             0 B     ALA     0  
    18 ILE22     131 GROUP             0 B     ILE     0  
    19 HIS23     139 GROUP             0 B     HIS     0  
    20 ASP24     149 GROUP             0 B     ASP     0  
@<TRIPOS>SET
CCDC_LIGAND STATIC ATOMS
294 1 2 3 4 5 6 7 8 9 \
10 11 12 13 14 15 16 17 18 19 \
20 21 22 23 24 25 26 27 28 29 \
30 31 32 33 34 35 36 37 38 39 \
40 41 42 43 44 45 46 47 48 49 \
50 51 52 53 54 55 56 57 58 59 \
60 61 62 63 64 65 66 67 68 69 \
70 71 72 73 74 75 76 77 78 79 \
80 81 82 83 84 85 86 87 88 89 \
90 91 92 93 94 95 96 97 98 99 \
100 101 102 103 104 105 106 107 108 109 \
110 111 112 113 114 115 116 117 118 119 \
120 121 122 123 124 125 126 127 128 129 \
130 131 132 133 134 135 136 137 138 139 \
140 141 142 143 144 145 146 147 148 149 \
150 151 152 153 154 155 156 157 158 159 \
160 161 162 163 164 165 166 167 168 169 \
170 171 172 173 174 175 176 177 178 179 \
180 181 182 183 184 185 186 187 188 189 \
190 191 192 193 194 195 196 197 198 199 \
200 201 202 203 204 205 206 207 208 209 \
210 211 212 213 214 215 216 217 218 219 \
220 221 222 223 224 225 226 227 228 229 \
230 231 232 233 234 235 236 237 238 239 \
240 241 242 243 244 245 246 247 248 249 \
250 251 252 253 254 255 256 257 258 259 \
260 261 262 263 264 265 266 267 268 269 \
270 271 272 273 274 275 276 277 278 279 \
280 281 282 283 284 285 286 287 288 289 \
290 291 292 293 294 
